/*--------------------------------*- C++ -*----------------------------------*\
| =========                 |                                                 |
| \\      /  F ield         | OpenFOAM: The Open Source CFD Toolbox           |
|  \\    /   O peration     | Version:  2.4.x                                 |
|   \\  /    A nd           | Web:      www.OpenFOAM.org                      |
|    \\/     M anipulation  |                                                 |
\*---------------------------------------------------------------------------*/
FoamFile
{
    version     2.0;
    format      ascii;
    class       polyBoundaryMesh;
    location    "0.001/polyMesh";
    object      boundary;
}
// * * * * * * * * * * * * * * * * * * * * * * * * * * * * * * * * * * * * * //

6
(
    inlet
    {
        type            patch;
        nFaces          200;
        startFace       81064;
    }
    outlet
    {
        type            patch;
        nFaces          200;
        startFace       81264;
    }
    farfield
    {
        type            patch;
        nFaces          1600;
        startFace       81464;
    }
    bottom
    {
        type            patch;
        nFaces          1600;
        startFace       83064;
    }
    hull
    {
        type            wall;
        inGroups        1(wall);
        nFaces          2701;
        startFace       84664;
    }
    region0_to_surface_freesurface_zone
    {
        type            mappedWall;
        inGroups        1(wall);
        nFaces          2205;
        startFace       87365;
        sampleMode      nearestPatchFace;
        sampleRegion    surface;
        samplePatch     region0_to_surface_freesurface_zone;
        offsetMode      nonuniform;
        offsets         nonuniform List<vector> 
2205
(
(-0 -0 -0)
(-0 -4.44089e-16 -0)
(-0 -0 -0)
(-0 -0 -0)
(-0 -2.22045e-16 -0)
(-8.88178e-16 -0 -0)
(-0 -0 -0)
(-1.77636e-15 -1.11022e-16 -0)
(-8.88178e-16 5.55112e-17 -0)
(-8.88178e-16 -2.77556e-17 -0)
(8.88178e-16 -2.77556e-17 -0)
(-0 1.11022e-16 -0)
(-1.77636e-15 1.11022e-16 -0)
(-8.88178e-16 -1.11022e-16 -0)
(-1.77636e-15 -1.11022e-16 -0)
(-8.88178e-16 2.22045e-16 -0)
(-0 2.22045e-16 -0)
(-0 -2.22045e-16 -0)
(-0 2.22045e-16 -0)
(-0 -0 -0)
(8.88178e-16 -0 -0)
(8.88178e-16 -4.44089e-16 -0)
(-0 2.22045e-16 -0)
(8.88178e-16 -2.22045e-16 -0)
(-1.77636e-15 -2.22045e-16 -0)
(-0 -0 -0)
(8.88178e-16 -1.11022e-16 -0)
(-0 -0 -0)
(-0 -0 -0)
(8.88178e-16 1.38778e-17 -0)
(-0 -1.38778e-17 -0)
(-1.77636e-15 5.55112e-17 -0)
(-0 5.55112e-17 -0)
(8.88178e-16 1.11022e-16 -0)
(-0 1.11022e-16 -0)
(-8.88178e-16 -0 -0)
(-0 -0 -0)
(-0 -2.22045e-16 -0)
(8.88178e-16 2.22045e-16 -0)
(-0 -0 -0)
(-0 -2.22045e-16 -0)
(-0 2.22045e-16 -0)
(-8.88178e-16 -2.22045e-16 -0)
(-0 -2.22045e-16 -0)
(8.88178e-16 2.22045e-16 -0)
(8.88178e-16 -0 -0)
(-8.88178e-16 -0 -0)
(-8.88178e-16 -1.11022e-16 -0)
(-8.88178e-16 -1.11022e-16 -0)
(-8.88178e-16 -0 -0)
(-1.77636e-15 1.38778e-17 -0)
(-0 1.11022e-16 -0)
(-0 -1.11022e-16 -0)
(-8.88178e-16 -0 -0)
(-0 -0 -0)
(-0 -0 -0)
(-0 2.22045e-16 -0)
(-8.88178e-16 2.22045e-16 -0)
(-0 -0 -0)
(-0 2.22045e-16 -0)
(-0 -0 -0)
(-0 -4.44089e-16 -0)
(1.77636e-15 2.22045e-16 -0)
(-0 -2.22045e-16 -0)
(1.77636e-15 -0 -0)
(-1.77636e-15 -1.11022e-16 -0)
(-8.88178e-16 -1.11022e-16 -0)
(-0 -0 -0)
(-8.88178e-16 5.55112e-17 -0)
(-8.88178e-16 -0 -0)
(-8.88178e-16 1.38778e-17 -0)
(-0 1.11022e-16 -0)
(-8.88178e-16 1.11022e-16 -0)
(-8.88178e-16 -0 -0)
(-8.88178e-16 1.11022e-16 -0)
(-8.88178e-16 -0 -0)
(-0 -0 -0)
(1.77636e-15 -2.22045e-16 -0)
(-0 2.22045e-16 -0)
(-0 -0 -0)
(-0 -0 -0)
(-1.77636e-15 -2.22045e-16 -0)
(-8.88178e-16 -2.22045e-16 -0)
(-0 -2.22045e-16 -0)
(-0 -0 -0)
(-0 -1.11022e-16 -0)
(-0 -2.22045e-16 -0)
(-0 -1.11022e-16 -0)
(8.88178e-16 -0 -0)
(-0 -0 -0)
(-0 -2.77556e-17 -0)
(-0 -5.55112e-17 -0)
(-0 -0 -0)
(-0 1.11022e-16 -0)
(-8.88178e-16 3.33067e-16 -0)
(-0 2.22045e-16 -0)
(-0 2.22045e-16 -0)
(-8.88178e-16 2.22045e-16 -0)
(-1.77636e-15 4.44089e-16 -0)
(8.88178e-16 -0 -0)
(-0 -2.22045e-16 -0)
(-0 -2.22045e-16 -0)
(-0 -0 -0)
(-8.88178e-16 -0 -0)
(-8.88178e-16 -0 -0)
(-0 -2.22045e-16 -0)
(-0 -1.11022e-16 -0)
(-0 -1.11022e-16 -0)
(8.88178e-16 -5.55112e-17 -0)
(-8.88178e-16 1.38778e-17 -0)
(8.88178e-16 -1.38778e-17 -0)
(-8.88178e-16 -5.55112e-17 -0)
(-0 -5.55112e-17 -0)
(-0 -0 -0)
(-0 1.11022e-16 -0)
(8.88178e-16 -2.22045e-16 -0)
(-0 -0 -0)
(-8.88178e-16 -0 -0)
(8.88178e-16 2.22045e-16 -0)
(-0 2.22045e-16 -0)
(-1.77636e-15 -2.22045e-16 -0)
(-8.88178e-16 2.22045e-16 -0)
(-8.88178e-16 -2.22045e-16 -0)
(-1.77636e-15 -4.44089e-16 -0)
(-0 2.22045e-16 -0)
(-1.77636e-15 -3.33067e-16 -0)
(-8.88178e-16 -1.11022e-16 -0)
(-0 -5.55112e-17 -0)
(-1.77636e-15 -5.55112e-17 -0)
(-8.88178e-16 -1.38778e-17 -0)
(-8.88178e-16 2.77556e-17 -0)
(8.88178e-16 -5.55112e-17 -0)
(-1.77636e-15 1.11022e-16 -0)
(8.88178e-16 -0 -0)
(-8.88178e-16 -0 -0)
(-8.88178e-16 -2.22045e-16 -0)
(8.88178e-16 -2.22045e-16 -0)
(-0 4.44089e-16 -0)
(-0 2.22045e-16 -0)
(-1.77636e-15 2.22045e-16 -0)
(8.88178e-16 -0 -0)
(-0 4.44089e-16 -0)
(-8.88178e-16 -2.22045e-16 -0)
(-0 -2.22045e-16 -0)
(-8.88178e-16 -2.22045e-16 -0)
(-0 -0 -0)
(-0 -0 -0)
(-0 -0 -0)
(8.88178e-16 -0 -0)
(-0 1.38778e-17 -0)
(-0 1.38778e-17 -0)
(-8.88178e-16 5.55112e-17 -0)
(-8.88178e-16 1.11022e-16 -0)
(-8.88178e-16 1.11022e-16 -0)
(-1.77636e-15 -0 -0)
(-0 4.44089e-16 -0)
(8.88178e-16 -2.22045e-16 -0)
(-0 2.22045e-16 -0)
(1.77636e-15 -2.22045e-16 -0)
(-0 -0 -0)
(-0 -0 -0)
(-0 -2.22045e-16 -0)
(-0 -0 -0)
(-0 -0 -0)
(-0 -0 -0)
(-8.88178e-16 1.11022e-16 -0)
(-0 -1.11022e-16 -0)
(-0 -5.55112e-17 -0)
(1.77636e-15 -0 -0)
(-0 -1.38778e-17 -0)
(-8.88178e-16 1.38778e-17 -0)
(-0 -0 -0)
(8.88178e-16 -0 -0)
(-8.88178e-16 1.11022e-16 -0)
(-8.88178e-16 -1.11022e-16 -0)
(-0 -2.22045e-16 -0)
(-8.88178e-16 -4.44089e-16 -0)
(8.88178e-16 -4.44089e-16 -0)
(-0 -0 -0)
(-0 -0 -0)
(-8.88178e-16 -0 -0)
(-0 -0 -0)
(-8.88178e-16 -2.22045e-16 -0)
(-0 -0 -0)
(-0 -2.22045e-16 -0)
(8.88178e-16 2.22045e-16 -0)
(-0 -1.11022e-16 -0)
(-0 -1.11022e-16 -0)
(8.88178e-16 5.55112e-17 -0)
(-0 -1.38778e-17 -0)
(-0 1.38778e-17 -0)
(-0 -5.55112e-17 -0)
(-0 1.11022e-16 -0)
(-0 2.22045e-16 -0)
(-0 -2.22045e-16 -0)
(-0 2.22045e-16 -0)
(-0 2.22045e-16 -0)
(-0 -2.22045e-16 -0)
(8.88178e-16 -2.22045e-16 -0)
(-0 2.22045e-16 -0)
(4.44089e-16 2.22045e-16 -0)
(4.44089e-16 -6.66134e-16 -0)
(-0 -0 -0)
(-4.44089e-16 -0 -0)
(-4.44089e-16 2.22045e-16 -0)
(-1.33227e-15 -2.22045e-16 -0)
(-8.88178e-16 -0 -0)
(-0 -0 -0)
(-1.33227e-15 -5.55112e-17 -0)
(-1.33227e-15 -1.38778e-17 -0)
(-1.33227e-15 2.77556e-17 -0)
(-4.44089e-16 -5.55112e-17 -0)
(-8.88178e-16 1.66533e-16 -0)
(-4.44089e-16 -0 -0)
(-4.44089e-16 -1.11022e-16 -0)
(-8.88178e-16 -0 -0)
(-1.33227e-15 -0 -0)
(-4.44089e-16 -0 -0)
(-4.44089e-16 -0 -0)
(-0 -4.44089e-16 -0)
(4.44089e-16 2.22045e-16 -0)
(-0 2.22045e-16 -0)
(8.88178e-16 -0 -0)
(-0 -0 -0)
(4.44089e-16 -2.22045e-16 -0)
(-4.44089e-16 1.11022e-16 -0)
(-4.44089e-16 -0 -0)
(-8.88178e-16 -0 -0)
(4.44089e-16 -0 -0)
(-8.88178e-16 -1.38778e-17 -0)
(-0 1.38778e-17 -0)
(4.44089e-16 5.55112e-17 -0)
(4.44089e-16 -0 -0)
(-8.88178e-16 -1.11022e-16 -0)
(-4.44089e-16 -0 -0)
(-8.88178e-16 2.22045e-16 -0)
(-4.44089e-16 4.44089e-16 -0)
(4.44089e-16 -4.44089e-16 -0)
(-4.44089e-16 2.22045e-16 -0)
(-1.33227e-15 4.44089e-16 -0)
(-4.44089e-16 -4.44089e-16 -0)
(-4.44089e-16 -2.22045e-16 -0)
(-1.77636e-15 -4.44089e-16 -0)
(-4.44089e-16 -2.22045e-16 -0)
(-0 -4.44089e-16 -0)
(4.44089e-16 2.22045e-16 -0)
(-1.33227e-15 -1.11022e-16 -0)
(-4.44089e-16 -1.11022e-16 -0)
(-8.88178e-16 -5.55112e-17 -0)
(-4.44089e-16 -0 -0)
(-0 -1.38778e-17 -0)
(-0 -0 -0)
(4.44089e-16 -0 -0)
(-4.44089e-16 -0 -0)
(-8.88178e-16 1.11022e-16 -0)
(-4.44089e-16 -0 -0)
(-1.33227e-15 2.22045e-16 -0)
(-8.88178e-16 2.22045e-16 -0)
(-0 2.22045e-16 -0)
(-0 -0 -0)
(-0 -2.22045e-16 -0)
(-4.44089e-16 -0 -0)
(-4.44089e-16 2.22045e-16 -0)
(-0 -0 -0)
(-4.44089e-16 -2.22045e-16 -0)
(4.44089e-16 -0 -0)
(-0 -0 -0)
(-0 -5.55112e-17 -0)
(-4.44089e-16 -0 -0)
(1.33227e-15 2.77556e-17 -0)
(-8.88178e-16 1.38778e-17 -0)
(-4.44089e-16 5.55112e-17 -0)
(-8.88178e-16 1.11022e-16 -0)
(-4.44089e-16 -0 -0)
(8.88178e-16 -0 -0)
(-0 2.22045e-16 -0)
(-4.44089e-16 -2.22045e-16 -0)
(-4.44089e-16 -0 -0)
(-8.88178e-16 -0 -0)
(-4.44089e-16 4.44089e-16 -0)
(-0 2.22045e-16 -0)
(4.44089e-16 4.44089e-16 -0)
(-4.44089e-16 2.22045e-16 -0)
(-8.88178e-16 -0 -0)
(4.44089e-16 -0 -0)
(4.44089e-16 1.11022e-16 -0)
(8.88178e-16 -2.22045e-16 -0)
(-4.44089e-16 5.55112e-17 -0)
(-4.44089e-16 -0 -0)
(-4.44089e-16 -0 -0)
(-0 -1.38778e-17 -0)
(-0 5.55112e-17 -0)
(4.44089e-16 1.11022e-16 -0)
(-4.44089e-16 -0 -0)
(-0 1.11022e-16 -0)
(-8.88178e-16 -0 -0)
(4.44089e-16 2.22045e-16 -0)
(4.44089e-16 -2.22045e-16 -0)
(4.44089e-16 -2.22045e-16 -0)
(-1.33227e-15 -0 -0)
(-0 4.44089e-16 -0)
(-0 -0 -0)
(-0 -2.22045e-16 -0)
(4.44089e-16 2.22045e-16 -0)
(4.44089e-16 -2.22045e-16 -0)
(4.44089e-16 -1.11022e-16 -0)
(-0 1.11022e-16 -0)
(-0 -0 -0)
(-8.88178e-16 -5.55112e-17 -0)
(4.44089e-16 -2.77556e-17 -0)
(-0 -2.77556e-17 -0)
(-8.88178e-16 1.11022e-16 -0)
(-0 1.11022e-16 -0)
(-8.88178e-16 2.22045e-16 -0)
(-0 1.11022e-16 -0)
(4.44089e-16 -0 -0)
(-0 -2.22045e-16 -0)
(-0 2.22045e-16 -0)
(-0 -2.22045e-16 -0)
(-0 -0 -0)
(-0 -2.22045e-16 -0)
(-0 -2.22045e-16 -0)
(-0 -2.22045e-16 -0)
(-4.44089e-16 -2.22045e-16 -0)
(-4.44089e-16 -2.22045e-16 -0)
(-0 1.11022e-16 -0)
(-4.44089e-16 -0 -0)
(-0 -0 -0)
(4.44089e-16 -5.55112e-17 -0)
(-4.44089e-16 -1.38778e-17 -0)
(4.44089e-16 -2.77556e-17 -0)
(4.44089e-16 -5.55112e-17 -0)
(-0 -0 -0)
(-8.88178e-16 -0 -0)
(-4.44089e-16 -0 -0)
(-0 2.22045e-16 -0)
(4.44089e-16 -0 -0)
(-0 2.22045e-16 -0)
(-0 -0 -0)
(-0 -0 -0)
(-0 -0 -0)
(-4.44089e-16 -4.44089e-16 -0)
(-0 -4.44089e-16 -0)
(-4.44089e-16 4.44089e-16 -0)
(-0 -2.22045e-16 -0)
(-0 -0 -0)
(-0 -0 -0)
(8.88178e-16 -0 -0)
(-4.44089e-16 -0 -0)
(-4.44089e-16 -0 -0)
(-8.88178e-16 -0 -0)
(8.88178e-16 -5.55112e-17 -0)
(-0 -0 -0)
(-0 -0 -0)
(-4.44089e-16 1.11022e-16 -0)
(-0 -0 -0)
(-8.88178e-16 -0 -0)
(-0 -0 -0)
(-0 -2.22045e-16 -0)
(-4.44089e-16 4.44089e-16 -0)
(-4.44089e-16 -4.44089e-16 -0)
(-0 -6.66134e-16 -0)
(4.44089e-16 2.22045e-16 -0)
(-4.44089e-16 2.22045e-16 -0)
(-4.44089e-16 -0 -0)
(-4.44089e-16 -1.11022e-16 -0)
(4.44089e-16 -0 -0)
(-0 -0 -0)
(-4.44089e-16 -1.11022e-16 -0)
(-0 -1.38778e-17 -0)
(-4.44089e-16 -0 -0)
(-4.44089e-16 -0 -0)
(-0 -0 -0)
(-4.44089e-16 -0 -0)
(-4.44089e-16 -0 -0)
(-0 -0 -0)
(-0 -0 -0)
(-0 -6.66134e-16 -0)
(-4.44089e-16 4.44089e-16 -0)
(4.44089e-16 -0 -0)
(4.44089e-16 4.44089e-16 -0)
(-0 -2.22045e-16 -0)
(4.44089e-16 2.22045e-16 -0)
(-0 -2.22045e-16 -0)
(-8.88178e-16 -4.44089e-16 -0)
(-0 -0 -0)
(-4.44089e-16 -1.11022e-16 -0)
(-4.44089e-16 5.55112e-17 -0)
(-0 -0 -0)
(-0 5.55112e-17 -0)
(-0 1.38778e-17 -0)
(-0 -5.55112e-17 -0)
(-0 -0 -0)
(-4.44089e-16 1.11022e-16 -0)
(-0 -1.11022e-16 -0)
(-8.88178e-16 2.22045e-16 -0)
(-0 -0 -0)
(4.44089e-16 2.22045e-16 -0)
(8.88178e-16 -0 -0)
(-4.44089e-16 2.22045e-16 -0)
(-0 -2.22045e-16 -0)
(-4.44089e-16 -2.22045e-16 -0)
(-0 -0 -0)
(2.22045e-16 -0 -0)
(-0 -0 -0)
(-0 1.11022e-16 -0)
(-4.44089e-16 -1.11022e-16 -0)
(-0 5.55112e-17 -0)
(-0 -5.55112e-17 -0)
(4.44089e-16 -0 -0)
(2.22045e-16 -3.46945e-18 -0)
(6.66134e-16 -2.77556e-17 -0)
(-0 -0 -0)
(-2.22045e-16 1.11022e-16 -0)
(-2.22045e-16 1.11022e-16 -0)
(-0 -2.22045e-16 -0)
(-2.22045e-16 -2.22045e-16 -0)
(-0 -0 -0)
(-0 -0 -0)
(-0 2.22045e-16 -0)
(-2.22045e-16 -8.88178e-16 -0)
(-2.22045e-16 -4.44089e-16 -0)
(-0 -0 -0)
(-0 -0 -0)
(-0 2.22045e-16 -0)
(-2.22045e-16 -2.22045e-16 -0)
(-2.22045e-16 -1.11022e-16 -0)
(-6.66134e-16 -1.11022e-16 -0)
(2.22045e-16 -0 -0)
(-2.22045e-16 2.77556e-17 -0)
(-4.44089e-16 -0 -0)
(-4.44089e-16 5.55112e-17 -0)
(-2.22045e-16 -0 -0)
(-2.22045e-16 1.11022e-16 -0)
(2.22045e-16 2.22045e-16 -0)
(-4.44089e-16 2.22045e-16 -0)
(-4.44089e-16 2.22045e-16 -0)
(-4.44089e-16 -2.22045e-16 -0)
(-2.22045e-16 4.44089e-16 -0)
(-0 -2.22045e-16 -0)
(4.44089e-16 2.22045e-16 -0)
(-0 -0 -0)
(-2.22045e-16 -2.22045e-16 -0)
(-0 -0 -0)
(-4.44089e-16 -0 -0)
(-0 -1.11022e-16 -0)
(-4.44089e-16 -3.33067e-16 -0)
(-2.22045e-16 -0 -0)
(-2.22045e-16 -0 -0)
(-0 2.77556e-17 -0)
(2.22045e-16 -1.11022e-16 -0)
(-2.22045e-16 -0 -0)
(-2.22045e-16 2.22045e-16 -0)
(-4.44089e-16 2.22045e-16 -0)
(-0 -2.22045e-16 -0)
(-4.44089e-16 -0 -0)
(-0 -0 -0)
(-2.22045e-16 2.22045e-16 -0)
(-0 -4.44089e-16 -0)
(-2.22045e-16 -0 -0)
(-0 -2.22045e-16 -0)
(4.44089e-16 -0 -0)
(-2.22045e-16 -0 -0)
(-0 2.22045e-16 -0)
(-2.22045e-16 -1.11022e-16 -0)
(-0 -5.55112e-17 -0)
(2.22045e-16 1.11022e-16 -0)
(-2.22045e-16 -2.77556e-17 -0)
(-2.22045e-16 5.55112e-17 -0)
(2.22045e-16 5.55112e-17 -0)
(-2.22045e-16 -1.11022e-16 -0)
(-0 -0 -0)
(-2.22045e-16 2.22045e-16 -0)
(-4.44089e-16 2.22045e-16 -0)
(-0 2.22045e-16 -0)
(-0 -2.22045e-16 -0)
(-0 -2.22045e-16 -0)
(-2.22045e-16 -0 -0)
(-2.22045e-16 -0 -0)
(2.22045e-16 4.44089e-16 -0)
(2.22045e-16 2.22045e-16 -0)
(-0 -2.22045e-16 -0)
(-0 -0 -0)
(2.22045e-16 1.11022e-16 -0)
(-0 -0 -0)
(-2.22045e-16 -5.55112e-17 -0)
(-2.22045e-16 -0 -0)
(-0 5.55112e-17 -0)
(-0 -0 -0)
(-2.22045e-16 3.33067e-16 -0)
(-0 -2.22045e-16 -0)
(-0 -0 -0)
(-0 -0 -0)
(-2.22045e-16 2.22045e-16 -0)
(-0 6.66134e-16 -0)
(-2.22045e-16 -0 -0)
(-0 -2.22045e-16 -0)
(-1.11022e-16 -0 -0)
(-2.22045e-16 -2.22045e-16 -0)
(-1.11022e-16 -2.22045e-16 -0)
(-0 -1.11022e-16 -0)
(-2.22045e-16 -2.22045e-16 -0)
(-0 -0 -0)
(1.11022e-16 1.11022e-16 -0)
(-1.11022e-16 5.55112e-17 -0)
(1.11022e-16 -1.11022e-16 -0)
(1.11022e-16 -1.11022e-16 -0)
(-0 -2.22045e-16 -0)
(-1.11022e-16 4.44089e-16 -0)
(-0 -0 -0)
(-0 -2.22045e-16 -0)
(2.22045e-16 -2.22045e-16 -0)
(-0 -2.22045e-16 -0)
(1.11022e-16 -0 -0)
(1.11022e-16 -2.22045e-16 -0)
(-2.22045e-16 -4.44089e-16 -0)
(-0 -2.22045e-16 -0)
(-1.11022e-16 -2.22045e-16 -0)
(1.11022e-16 1.11022e-16 -0)
(-0 -1.11022e-16 -0)
(-1.11022e-16 -5.55112e-17 -0)
(-2.22045e-16 1.66533e-16 -0)
(1.11022e-16 -0 -0)
(-0 2.22045e-16 -0)
(-0 -0 -0)
(1.11022e-16 -4.44089e-16 -0)
(-0 -0 -0)
(-1.11022e-16 -0 -0)
(-1.11022e-16 -0 -0)
(-5.55112e-17 -2.22045e-16 -0)
(-5.55112e-17 -4.44089e-16 -0)
(-0 -0 -0)
(-1.11022e-16 -0 -0)
(-5.55112e-17 -2.22045e-16 -0)
(-0 -1.11022e-16 -0)
(-0 -0 -0)
(1.11022e-16 -0 -0)
(-1.11022e-16 -1.11022e-16 -0)
(-1.11022e-16 -5.55112e-17 -0)
(-0 -0 -0)
(1.11022e-16 -0 -0)
(5.55112e-17 2.22045e-16 -0)
(-1.11022e-16 -0 -0)
(5.55112e-17 2.22045e-16 -0)
(-1.66533e-16 -0 -0)
(-0 2.22045e-16 -0)
(-0 -2.22045e-16 -0)
(-5.55112e-17 -0 -0)
(5.55112e-17 -2.22045e-16 -0)
(-5.55112e-17 -0 -0)
(-5.55112e-17 -2.22045e-16 -0)
(-0 -0 -0)
(-0 -0 -0)
(-0 -0 -0)
(-5.55112e-17 5.55112e-17 -0)
(5.55112e-17 -0 -0)
(-1.11022e-16 1.11022e-16 -0)
(-5.55112e-17 -0 -0)
(-5.55112e-17 -0 -0)
(-0 -0 -0)
(-0 -0 -0)
(-0 -0 -0)
(-0 -0 -0)
(-1.38778e-17 -4.44089e-16 -0)
(-0 -0 -0)
(-1.38778e-17 -2.22045e-16 -0)
(-0 -0 -0)
(-4.16334e-17 -2.22045e-16 -0)
(-2.77556e-17 -0 -0)
(-2.77556e-17 -1.11022e-16 -0)
(2.77556e-17 -1.11022e-16 -0)
(-2.77556e-17 -0 -0)
(-0 -0 -0)
(-1.38778e-17 -0 -0)
(-1.38778e-17 2.22045e-16 -0)
(-2.77556e-17 2.22045e-16 -0)
(-0 -0 -0)
(-0 -0 -0)
(-0 -2.22045e-16 -0)
(4.16334e-17 -4.44089e-16 -0)
(-1.38778e-17 -0 -0)
(1.38778e-17 -2.22045e-16 -0)
(2.77556e-17 -0 -0)
(6.93889e-18 1.11022e-16 -0)
(6.93889e-18 -1.11022e-16 -0)
(3.46945e-18 -0 -0)
(-0 -2.22045e-16 -0)
(2.77556e-17 2.22045e-16 -0)
(2.77556e-17 2.22045e-16 -0)
(1.38778e-17 2.22045e-16 -0)
(2.77556e-17 2.22045e-16 -0)
(-0 -0 -0)
(-1.11022e-16 2.22045e-16 -0)
(-0 -2.22045e-16 -0)
(5.55112e-17 -2.22045e-16 -0)
(5.55112e-17 -0 -0)
(-5.55112e-17 -2.22045e-16 -0)
(-0 -2.22045e-16 -0)
(1.11022e-16 -0 -0)
(-0 -0 -0)
(5.55112e-17 2.22045e-16 -0)
(1.11022e-16 -1.11022e-16 -0)
(-0 -2.22045e-16 -0)
(-0 -2.22045e-16 -0)
(-0 -0 -0)
(-0 -0 -0)
(-0 2.22045e-16 -0)
(5.55112e-17 4.44089e-16 -0)
(1.11022e-16 -2.22045e-16 -0)
(5.55112e-17 -0 -0)
(-1.11022e-16 2.22045e-16 -0)
(-1.11022e-16 -0 -0)
(-0 -2.22045e-16 -0)
(-5.55112e-17 -0 -0)
(-0 -0 -0)
(-1.11022e-16 -1.11022e-16 -0)
(-0 3.33067e-16 -0)
(1.11022e-16 -0 -0)
(-0 -0 -0)
(-0 -2.22045e-16 -0)
(-1.11022e-16 -2.22045e-16 -0)
(1.11022e-16 -0 -0)
(-0 2.22045e-16 -0)
(3.33067e-16 -4.44089e-16 -0)
(1.11022e-16 -2.22045e-16 -0)
(2.22045e-16 -0 -0)
(-1.11022e-16 2.22045e-16 -0)
(-1.11022e-16 2.22045e-16 -0)
(-0 -1.11022e-16 -0)
(-1.11022e-16 1.11022e-16 -0)
(-0 -0 -0)
(-0 -3.33067e-16 -0)
(1.11022e-16 2.22045e-16 -0)
(-1.11022e-16 -2.22045e-16 -0)
(1.11022e-16 -0 -0)
(-0 -0 -0)
(1.11022e-16 -0 -0)
(1.11022e-16 -4.44089e-16 -0)
(-0 -2.22045e-16 -0)
(-0 4.44089e-16 -0)
(3.33067e-16 -2.22045e-16 -0)
(1.11022e-16 -0 -0)
(1.11022e-16 -2.22045e-16 -0)
(2.22045e-16 1.11022e-16 -0)
(1.11022e-16 -0 -0)
(-0 -0 -0)
(3.33067e-16 1.11022e-16 -0)
(2.22045e-16 -0 -0)
(1.11022e-16 -0 -0)
(-0 -0 -0)
(-1.11022e-16 2.22045e-16 -0)
(-0 -0 -0)
(2.22045e-16 2.22045e-16 -0)
(-4.44089e-16 4.44089e-16 -0)
(2.22045e-16 -2.22045e-16 -0)
(-0 2.22045e-16 -0)
(2.22045e-16 -0 -0)
(-0 1.11022e-16 -0)
(-0 -1.11022e-16 -0)
(-0 -0 -0)
(-0 -1.11022e-16 -0)
(4.44089e-16 3.33067e-16 -0)
(-0 4.44089e-16 -0)
(-0 -0 -0)
(2.22045e-16 -2.22045e-16 -0)
(-0 2.22045e-16 -0)
(2.22045e-16 -0 -0)
(-0 -0 -0)
(2.22045e-16 -2.22045e-16 -0)
(-0 -2.22045e-16 -0)
(2.22045e-16 -0 -0)
(2.22045e-16 -2.22045e-16 -0)
(-0 -2.22045e-16 -0)
(2.22045e-16 -0 -0)
(-2.22045e-16 -1.11022e-16 -0)
(2.22045e-16 -1.11022e-16 -0)
(-0 3.33067e-16 -0)
(-0 -0 -0)
(2.22045e-16 2.22045e-16 -0)
(2.22045e-16 -0 -0)
(-0 2.22045e-16 -0)
(-2.22045e-16 -0 -0)
(6.66134e-16 -1.11022e-15 -0)
(2.22045e-16 4.44089e-16 -0)
(-0 -2.22045e-16 -0)
(2.22045e-16 -4.44089e-16 -0)
(-0 2.22045e-16 -0)
(-2.22045e-16 -0 -0)
(4.44089e-16 -1.11022e-16 -0)
(-0 -2.22045e-16 -0)
(-0 -0 -0)
(2.22045e-16 -0 -0)
(-0 -2.22045e-16 -0)
(2.22045e-16 -0 -0)
(-0 2.22045e-16 -0)
(-0 -0 -0)
(2.22045e-16 -0 -0)
(-0 -0 -0)
(4.44089e-16 -2.22045e-16 -0)
(-0 2.22045e-16 -0)
(-4.44089e-16 2.22045e-16 -0)
(2.22045e-16 4.44089e-16 -0)
(-0 -0 -0)
(4.44089e-16 -3.33067e-16 -0)
(2.22045e-16 1.11022e-16 -0)
(4.44089e-16 1.11022e-16 -0)
(2.22045e-16 -0 -0)
(4.44089e-16 2.22045e-16 -0)
(2.22045e-16 2.22045e-16 -0)
(-0 -0 -0)
(4.44089e-16 -0 -0)
(4.44089e-16 2.22045e-16 -0)
(-0 -0 -0)
(2.22045e-16 -0 -0)
(6.66134e-16 -4.44089e-16 -0)
(-2.22045e-16 -2.22045e-16 -0)
(2.22045e-16 -0 -0)
(-2.22045e-16 1.11022e-16 -0)
(4.44089e-16 -0 -0)
(-2.22045e-16 1.11022e-16 -0)
(-0 -0 -0)
(-0 -0 -0)
(2.22045e-16 -0 -0)
(4.44089e-16 2.22045e-16 -0)
(-0 2.22045e-16 -0)
(2.22045e-16 -0 -0)
(2.22045e-16 -0 -0)
(4.44089e-16 -0 -0)
(4.44089e-16 -4.44089e-16 -0)
(-0 -0 -0)
(-0 -4.44089e-16 -0)
(-0 -0 -0)
(-0 1.11022e-16 -0)
(-0 -1.11022e-16 -0)
(-4.44089e-16 1.11022e-16 -0)
(4.44089e-16 -5.55112e-17 -0)
(4.44089e-16 -2.77556e-17 -0)
(-4.44089e-16 3.46945e-18 -0)
(-0 2.77556e-17 -0)
(4.44089e-16 -1.11022e-16 -0)
(-4.44089e-16 -1.11022e-16 -0)
(4.44089e-16 1.11022e-16 -0)
(4.44089e-16 -2.22045e-16 -0)
(-0 -0 -0)
(-0 -0 -0)
(-4.44089e-16 -0 -0)
(-4.44089e-16 -4.44089e-16 -0)
(-4.44089e-16 -2.22045e-16 -0)
(4.44089e-16 -4.44089e-16 -0)
(-0 -0 -0)
(-0 4.44089e-16 -0)
(4.44089e-16 -2.22045e-16 -0)
(-0 -1.11022e-16 -0)
(4.44089e-16 -1.11022e-16 -0)
(4.44089e-16 -1.11022e-16 -0)
(-0 -5.55112e-17 -0)
(-4.44089e-16 -0 -0)
(-0 -0 -0)
(4.44089e-16 5.55112e-17 -0)
(-4.44089e-16 5.55112e-17 -0)
(-0 -0 -0)
(4.44089e-16 -1.11022e-16 -0)
(-0 -0 -0)
(-4.44089e-16 2.22045e-16 -0)
(8.88178e-16 4.44089e-16 -0)
(-8.88178e-16 -0 -0)
(-0 -0 -0)
(4.44089e-16 -2.22045e-16 -0)
(-0 -4.44089e-16 -0)
(-0 -0 -0)
(-4.44089e-16 -0 -0)
(8.88178e-16 -4.44089e-16 -0)
(-0 -0 -0)
(-0 -0 -0)
(-4.44089e-16 -0 -0)
(-0 -1.11022e-16 -0)
(-4.44089e-16 -0 -0)
(4.44089e-16 -1.38778e-17 -0)
(4.44089e-16 -0 -0)
(-0 -0 -0)
(-4.44089e-16 -0 -0)
(-0 1.11022e-16 -0)
(-0 -0 -0)
(4.44089e-16 -2.22045e-16 -0)
(-0 -4.44089e-16 -0)
(-4.44089e-16 -0 -0)
(-0 -2.22045e-16 -0)
(-8.88178e-16 4.44089e-16 -0)
(-4.44089e-16 -2.22045e-16 -0)
(-4.44089e-16 2.22045e-16 -0)
(8.88178e-16 -2.22045e-16 -0)
(-0 2.22045e-16 -0)
(-0 -2.22045e-16 -0)
(4.44089e-16 -1.11022e-16 -0)
(-0 -5.55112e-17 -0)
(4.44089e-16 -0 -0)
(-0 -0 -0)
(4.44089e-16 -0 -0)
(4.44089e-16 -0 -0)
(4.44089e-16 1.66533e-16 -0)
(-0 -0 -0)
(4.44089e-16 -0 -0)
(-0 -0 -0)
(4.44089e-16 2.22045e-16 -0)
(4.44089e-16 2.22045e-16 -0)
(-0 -0 -0)
(4.44089e-16 -2.22045e-16 -0)
(-0 -2.22045e-16 -0)
(8.88178e-16 -6.66134e-16 -0)
(4.44089e-16 -2.22045e-16 -0)
(4.44089e-16 -0 -0)
(-0 2.22045e-16 -0)
(-8.88178e-16 -0 -0)
(-0 -0 -0)
(4.44089e-16 -0 -0)
(4.44089e-16 -0 -0)
(-0 -1.38778e-17 -0)
(-0 -4.16334e-17 -0)
(-0 -0 -0)
(-0 -0 -0)
(4.44089e-16 -0 -0)
(-0 -0 -0)
(8.88178e-16 4.44089e-16 -0)
(-0 2.22045e-16 -0)
(-4.44089e-16 4.44089e-16 -0)
(4.44089e-16 2.22045e-16 -0)
(-4.44089e-16 -0 -0)
(8.88178e-16 -4.44089e-16 -0)
(8.88178e-16 2.22045e-16 -0)
(-0 -0 -0)
(-4.44089e-16 2.22045e-16 -0)
(-4.44089e-16 6.66134e-16 -0)
(4.44089e-16 2.22045e-16 -0)
(-4.44089e-16 -0 -0)
(4.44089e-16 -5.55112e-17 -0)
(-0 -0 -0)
(-0 -1.38778e-17 -0)
(4.44089e-16 4.16334e-17 -0)
(4.44089e-16 1.11022e-16 -0)
(8.88178e-16 1.66533e-16 -0)
(8.88178e-16 2.22045e-16 -0)
(-0 2.22045e-16 -0)
(-8.88178e-16 -0 -0)
(-0 -0 -0)
(-4.44089e-16 -0 -0)
(4.44089e-16 2.22045e-16 -0)
(-0 2.22045e-16 -0)
(8.88178e-16 -2.22045e-16 -0)
(8.88178e-16 2.22045e-16 -0)
(4.44089e-16 -0 -0)
(8.88178e-16 -0 -0)
(4.44089e-16 -0 -0)
(4.44089e-16 -1.11022e-16 -0)
(4.44089e-16 -0 -0)
(4.44089e-16 -5.55112e-17 -0)
(4.44089e-16 5.55112e-17 -0)
(-0 -0 -0)
(8.88178e-16 1.38778e-17 -0)
(-0 1.11022e-16 -0)
(4.44089e-16 -5.55112e-17 -0)
(-0 -1.11022e-16 -0)
(-0 -3.33067e-16 -0)
(4.44089e-16 2.22045e-16 -0)
(-4.44089e-16 -0 -0)
(4.44089e-16 -0 -0)
(4.44089e-16 -0 -0)
(1.33227e-15 4.44089e-16 -0)
(4.44089e-16 -0 -0)
(-4.44089e-16 -0 -0)
(8.88178e-16 -4.44089e-16 -0)
(8.88178e-16 -2.22045e-16 -0)
(4.44089e-16 2.22045e-16 -0)
(-0 -0 -0)
(4.44089e-16 -0 -0)
(-0 -1.11022e-16 -0)
(4.44089e-16 -0 -0)
(4.44089e-16 -1.38778e-17 -0)
(8.88178e-16 1.38778e-17 -0)
(-0 -0 -0)
(4.44089e-16 -0 -0)
(-0 -2.22045e-16 -0)
(4.44089e-16 -0 -0)
(4.44089e-16 -0 -0)
(4.44089e-16 -0 -0)
(8.88178e-16 2.22045e-16 -0)
(-0 2.22045e-16 -0)
(8.88178e-16 4.44089e-16 -0)
(8.88178e-16 -4.44089e-16 -0)
(-0 2.22045e-16 -0)
(-0 -0 -0)
(8.88178e-16 -2.22045e-16 -0)
(4.44089e-16 2.22045e-16 -0)
(4.44089e-16 -0 -0)
(8.88178e-16 -2.22045e-16 -0)
(8.88178e-16 -1.11022e-16 -0)
(1.33227e-15 -5.55112e-17 -0)
(4.44089e-16 -0 -0)
(-0 -0 -0)
(4.44089e-16 -5.55112e-17 -0)
(8.88178e-16 5.55112e-17 -0)
(-0 1.11022e-16 -0)
(8.88178e-16 3.33067e-16 -0)
(-0 2.22045e-16 -0)
(-4.44089e-16 -0 -0)
(4.44089e-16 6.66134e-16 -0)
(4.44089e-16 6.66134e-16 -0)
(-0 -0 -0)
(-0 -2.22045e-16 -0)
(-8.88178e-16 -0 -0)
(8.88178e-16 -4.44089e-16 -0)
(4.44089e-16 -0 -0)
(-0 -0 -0)
(4.44089e-16 -1.11022e-16 -0)
(4.44089e-16 1.11022e-16 -0)
(-4.44089e-16 -0 -0)
(4.44089e-16 -0 -0)
(4.44089e-16 -0 -0)
(-0 -0 -0)
(-0 -0 -0)
(8.88178e-16 1.11022e-16 -0)
(-4.44089e-16 -0 -0)
(8.88178e-16 -0 -0)
(4.44089e-16 4.44089e-16 -0)
(-0 2.22045e-16 -0)
(4.44089e-16 -0 -0)
(-4.44089e-16 -2.22045e-16 -0)
(1.77636e-15 4.44089e-16 -0)
(-0 -0 -0)
(-0 -2.22045e-16 -0)
(-0 -0 -0)
(1.77636e-15 -6.66134e-16 -0)
(-8.88178e-16 2.22045e-16 -0)
(8.88178e-16 -0 -0)
(-0 -1.11022e-16 -0)
(8.88178e-16 -0 -0)
(-0 -0 -0)
(-0 -0 -0)
(-0 -2.77556e-17 -0)
(-0 -0 -0)
(-0 -0 -0)
(8.88178e-16 2.22045e-16 -0)
(-0 1.11022e-16 -0)
(-0 2.22045e-16 -0)
(-0 2.22045e-16 -0)
(-0 2.22045e-16 -0)
(8.88178e-16 8.88178e-16 -0)
(-8.88178e-16 -2.22045e-16 -0)
(-0 -0 -0)
(-0 -2.22045e-16 -0)
(-0 -0 -0)
(-0 -2.22045e-16 -0)
(8.88178e-16 2.22045e-16 -0)
(-0 -1.11022e-16 -0)
(1.77636e-15 -2.22045e-16 -0)
(1.77636e-15 -1.11022e-16 -0)
(-0 -0 -0)
(8.88178e-16 -0 -0)
(8.88178e-16 2.77556e-17 -0)
(-8.88178e-16 -0 -0)
(-8.88178e-16 -1.66533e-16 -0)
(1.77636e-15 1.11022e-16 -0)
(8.88178e-16 2.22045e-16 -0)
(-8.88178e-16 -2.22045e-16 -0)
(8.88178e-16 4.44089e-16 -0)
(-1.77636e-15 -2.22045e-16 -0)
(-0 2.22045e-16 -0)
(-0 2.22045e-16 -0)
(1.77636e-15 -8.88178e-16 -0)
(-0 -2.22045e-16 -0)
(8.88178e-16 -6.66134e-16 -0)
(-8.88178e-16 2.22045e-16 -0)
(1.77636e-15 -4.44089e-16 -0)
(-0 -0 -0)
(-0 -1.11022e-16 -0)
(-0 -5.55112e-17 -0)
(-0 -0 -0)
(-0 -0 -0)
(-0 1.38778e-17 -0)
(-0 -5.55112e-17 -0)
(8.88178e-16 1.11022e-16 -0)
(-8.88178e-16 -0 -0)
(-8.88178e-16 -1.11022e-16 -0)
(-0 -0 -0)
(8.88178e-16 -2.22045e-16 -0)
(-0 -0 -0)
(-0 -0 -0)
(2.66454e-15 6.66134e-16 -0)
(-8.88178e-16 -2.22045e-16 -0)
(-0 -2.22045e-16 -0)
(8.88178e-16 -2.22045e-16 -0)
(1.77636e-15 -2.22045e-16 -0)
(-0 -2.22045e-16 -0)
(-0 -0 -0)
(-0 -0 -0)
(-0 -0 -0)
(8.88178e-16 -5.55112e-17 -0)
(1.77636e-15 -2.77556e-17 -0)
(-0 1.38778e-17 -0)
(-0 -0 -0)
(1.77636e-15 1.66533e-16 -0)
(-8.88178e-16 -0 -0)
(8.88178e-16 -1.11022e-16 -0)
(-0 2.22045e-16 -0)
(-0 4.44089e-16 -0)
(1.77636e-15 -0 -0)
(-0 2.22045e-16 -0)
(-8.88178e-16 2.22045e-16 -0)
(8.88178e-16 -2.22045e-16 -0)
(8.88178e-16 -0 -0)
(8.88178e-16 -0 -0)
(-8.88178e-16 2.22045e-16 -0)
(-0 -0 -0)
(1.77636e-15 -1.11022e-16 -0)
(-0 -0 -0)
(8.88178e-16 5.55112e-17 -0)
(1.77636e-15 -5.55112e-17 -0)
(8.88178e-16 1.38778e-17 -0)
(-0 -0 -0)
(8.88178e-16 5.55112e-17 -0)
(-0 -0 -0)
(-0 -0 -0)
(1.77636e-15 1.11022e-16 -0)
(-0 -2.22045e-16 -0)
(-1.77636e-15 -2.22045e-16 -0)
(-0 2.22045e-16 -0)
(8.88178e-16 -0 -0)
(-8.88178e-16 -2.22045e-16 -0)
(8.88178e-16 -4.44089e-16 -0)
(-0 -0 -0)
(-8.88178e-16 -2.22045e-16 -0)
(-0 -0 -0)
(-0 -2.22045e-16 -0)
(8.88178e-16 -1.11022e-16 -0)
(8.88178e-16 -0 -0)
(-0 -1.11022e-16 -0)
(-0 -0 -0)
(-0 -0 -0)
(8.88178e-16 2.77556e-17 -0)
(8.88178e-16 -5.55112e-17 -0)
(-0 1.11022e-16 -0)
(8.88178e-16 -0 -0)
(-8.88178e-16 1.11022e-16 -0)
(-0 -0 -0)
(8.88178e-16 2.22045e-16 -0)
(-0 2.22045e-16 -0)
(1.77636e-15 -2.22045e-16 -0)
(-0 -0 -0)
(8.88178e-16 -2.22045e-16 -0)
(8.88178e-16 -2.22045e-16 -0)
(8.88178e-16 -0 -0)
(-8.88178e-16 -0 -0)
(-0 -2.22045e-16 -0)
(1.77636e-15 -1.11022e-16 -0)
(8.88178e-16 -1.11022e-16 -0)
(1.77636e-15 -1.66533e-16 -0)
(-0 5.55112e-17 -0)
(8.88178e-16 -1.38778e-17 -0)
(8.88178e-16 1.38778e-17 -0)
(-0 5.55112e-17 -0)
(-0 5.55112e-17 -0)
(-0 2.22045e-16 -0)
(-0 -0 -0)
(1.77636e-15 4.44089e-16 -0)
(-8.88178e-16 -2.22045e-16 -0)
(8.88178e-16 -0 -0)
(8.88178e-16 -2.22045e-16 -0)
(8.88178e-16 2.22045e-16 -0)
(-8.88178e-16 -0 -0)
(8.88178e-16 -0 -0)
(-0 -0 -0)
(8.88178e-16 -2.22045e-16 -0)
(-0 -0 -0)
(8.88178e-16 -0 -0)
(-0 1.11022e-16 -0)
(8.88178e-16 -5.55112e-17 -0)
(8.88178e-16 -0 -0)
(-0 -1.38778e-17 -0)
(-0 2.77556e-17 -0)
(-0 -5.55112e-17 -0)
(-0 -0 -0)
(-0 2.22045e-16 -0)
(-0 -1.11022e-16 -0)
(-0 -0 -0)
(-0 2.22045e-16 -0)
(-8.88178e-16 2.22045e-16 -0)
(8.88178e-16 4.44089e-16 -0)
(8.88178e-16 2.22045e-16 -0)
(-0 -0 -0)
(-0 -4.44089e-16 -0)
(-8.88178e-16 2.22045e-16 -0)
(-0 -2.22045e-16 -0)
(-8.88178e-16 2.22045e-16 -0)
(-1.77636e-15 -2.22045e-16 -0)
(8.88178e-16 1.11022e-16 -0)
(-8.88178e-16 -5.55112e-17 -0)
(-8.88178e-16 -0 -0)
(-8.88178e-16 -0 -0)
(8.88178e-16 -1.38778e-17 -0)
(-0 -0 -0)
(-8.88178e-16 1.11022e-16 -0)
(-0 1.11022e-16 -0)
(-1.77636e-15 -1.11022e-16 -0)
(-8.88178e-16 -0 -0)
(-0 -0 -0)
(-8.88178e-16 -2.22045e-16 -0)
(-0 2.22045e-16 -0)
(-0 -0 -0)
(-0 -0 -0)
(8.88178e-16 -0 -0)
(-0 -4.44089e-16 -0)
(8.88178e-16 -2.22045e-16 -0)
(8.88178e-16 -0 -0)
(8.88178e-16 -1.11022e-16 -0)
(-0 1.11022e-16 -0)
(-0 -1.11022e-16 -0)
(8.88178e-16 -0 -0)
(-0 -1.38778e-17 -0)
(-8.88178e-16 1.38778e-17 -0)
(-0 -0 -0)
(8.88178e-16 -1.66533e-16 -0)
(-0 -0 -0)
(-0 -0 -0)
(-0 -0 -0)
(-0 2.22045e-16 -0)
(-0 2.22045e-16 -0)
(8.88178e-16 4.44089e-16 -0)
(-0 2.22045e-16 -0)
(-0 -0 -0)
(-0 -4.44089e-16 -0)
(-8.88178e-16 -0 -0)
(-0 -0 -0)
(-0 -0 -0)
(2.66454e-15 -2.22045e-16 -0)
(8.88178e-16 -1.11022e-16 -0)
(-8.88178e-16 -5.55112e-17 -0)
(-0 -0 -0)
(8.88178e-16 -0 -0)
(-8.88178e-16 -0 -0)
(-0 -5.55112e-17 -0)
(8.88178e-16 5.55112e-17 -0)
(1.77636e-15 2.22045e-16 -0)
(8.88178e-16 1.11022e-16 -0)
(1.77636e-15 2.22045e-16 -0)
(-0 2.22045e-16 -0)
(-8.88178e-16 -2.22045e-16 -0)
(-0 2.22045e-16 -0)
(-0 -0 -0)
(-0 -0 -0)
(-0 -4.44089e-16 -0)
(-0 2.22045e-16 -0)
(-0 -2.22045e-16 -0)
(1.77636e-15 -2.22045e-16 -0)
(8.88178e-16 -1.11022e-16 -0)
(-0 -0 -0)
(8.88178e-16 -0 -0)
(8.88178e-16 -1.11022e-16 -0)
(-1.77636e-15 -1.38778e-17 -0)
(1.77636e-15 5.55112e-17 -0)
(-8.88178e-16 1.11022e-16 -0)
(-0 -5.55112e-17 -0)
(-0 -0 -0)
(1.77636e-15 1.11022e-16 -0)
(8.88178e-16 -0 -0)
(-0 -0 -0)
(-0 -2.22045e-16 -0)
(-0 2.22045e-16 -0)
(-0 -0 -0)
(-0 -0 -0)
(-0 -0 -0)
(-0 -2.22045e-16 -0)
(-0 2.22045e-16 -0)
(-0 -2.22045e-16 -0)
(8.88178e-16 -0 -0)
(8.88178e-16 -0 -0)
(8.88178e-16 -1.11022e-16 -0)
(8.88178e-16 -5.55112e-17 -0)
(-0 -0 -0)
(1.77636e-15 -1.38778e-17 -0)
(8.88178e-16 5.55112e-17 -0)
(8.88178e-16 -5.55112e-17 -0)
(8.88178e-16 2.22045e-16 -0)
(-0 -0 -0)
(-0 -0 -0)
(-0 -0 -0)
(-0 2.22045e-16 -0)
(-0 -0 -0)
(-0 -0 -0)
(-0 -0 -0)
(-0 -4.44089e-16 -0)
(-8.88178e-16 2.22045e-16 -0)
(-0 -2.22045e-16 -0)
(-0 -2.22045e-16 -0)
(-0 -0 -0)
(8.88178e-16 -0 -0)
(8.88178e-16 -1.11022e-16 -0)
(8.88178e-16 5.55112e-17 -0)
(-0 2.77556e-17 -0)
(-0 -0 -0)
(8.88178e-16 1.11022e-16 -0)
(8.88178e-16 2.22045e-16 -0)
(8.88178e-16 -0 -0)
(8.88178e-16 -0 -0)
(-0 2.22045e-16 -0)
(-0 -0 -0)
(-8.88178e-16 -2.22045e-16 -0)
(-0 2.22045e-16 -0)
(-0 -0 -0)
(-8.88178e-16 -0 -0)
(-8.88178e-16 -2.22045e-16 -0)
(-0 2.22045e-16 -0)
(-8.88178e-16 -2.22045e-16 -0)
(-8.88178e-16 -0 -0)
(-8.88178e-16 -2.22045e-16 -0)
(-0 -0 -0)
(8.88178e-16 -0 -0)
(-0 5.55112e-17 -0)
(-0 1.38778e-17 -0)
(1.77636e-15 2.77556e-17 -0)
(-0 -0 -0)
(8.88178e-16 1.11022e-16 -0)
(-0 1.11022e-16 -0)
(8.88178e-16 2.22045e-16 -0)
(-8.88178e-16 -0 -0)
(-8.88178e-16 -0 -0)
(-0 -4.44089e-16 -0)
(-8.88178e-16 2.22045e-16 -0)
(-8.88178e-16 -0 -0)
(8.88178e-16 -0 -0)
(8.88178e-16 -4.44089e-16 -0)
(-8.88178e-16 -0 -0)
(8.88178e-16 -0 -0)
(-0 -2.22045e-16 -0)
(-0 -0 -0)
(-0 -0 -0)
(8.88178e-16 -1.11022e-16 -0)
(8.88178e-16 5.55112e-17 -0)
(-0 1.38778e-17 -0)
(8.88178e-16 -0 -0)
(8.88178e-16 1.11022e-16 -0)
(8.88178e-16 2.22045e-16 -0)
(-0 -1.11022e-16 -0)
(8.88178e-16 -0 -0)
(8.88178e-16 2.22045e-16 -0)
(-0 2.22045e-16 -0)
(-8.88178e-16 -2.22045e-16 -0)
(8.88178e-16 2.22045e-16 -0)
(-0 -0 -0)
(-0 -0 -0)
(-0 -4.44089e-16 -0)
(-8.88178e-16 2.22045e-16 -0)
(-0 -2.22045e-16 -0)
(8.88178e-16 -2.22045e-16 -0)
(-0 -0 -0)
(-0 -0 -0)