/*--------------------------------*- C++ -*----------------------------------*\
| =========                 |                                                 |
| \\      /  F ield         | OpenFOAM: The Open Source CFD Toolbox           |
|  \\    /   O peration     | Version:  2.3.x                                 |
|   \\  /    A nd           | Web:      www.OpenFOAM.org                      |
|    \\/     M anipulation  |                                                 |
\*---------------------------------------------------------------------------*/
FoamFile
{
    version     2.0;
    format      ascii;
    class       polyBoundaryMesh;
    location    "0.001/surface/polyMesh";
    object      boundary;
}
// * * * * * * * * * * * * * * * * * * * * * * * * * * * * * * * * * * * * * //

6
(
    farfield
    {
        type            patch;
        nFaces          152;
        startFace       10925;
    }
    inlet
    {
        type            patch;
        nFaces          36;
        startFace       11077;
    }
    outlet
    {
        type            patch;
        nFaces          36;
        startFace       11113;
    }
    hull
    {
        type            wall;
        inGroups        1(wall);
        nFaces          274;
        startFace       11149;
    }
    freesurface_zone_top
    {
        type            patch;
        nFaces          5522;
        startFace       11423;
    }
    region0_to_surface_freesurface_zone
    {
        type            mappedWall;
        inGroups        1(wall);
        nFaces          5522;
        startFace       16945;
        sampleMode      nearestPatchFace;
        sampleRegion    region0;
        samplePatch     region0_to_surface_freesurface_zone;
        offsetMode      nonuniform;
        offsets         nonuniform List<vector> 
5522
(
(4.44089e-16 0 0)
(4.44089e-16 0 6.16298e-33)
(-2.22045e-16 0 0)
(0 -6.93889e-18 2.31112e-33)
(2.22045e-16 0 -3.08149e-33)
(2.22045e-16 5.55112e-17 -6.16298e-33)
(0 0 -6.16298e-33)
(2.22045e-16 -2.77556e-17 3.08149e-33)
(4.44089e-16 -1.38778e-17 1.54074e-33)
(2.22045e-16 6.93889e-18 -7.70372e-34)
(2.22045e-16 0 3.08149e-33)
(-2.22045e-16 -2.77556e-17 0)
(0 0 6.16298e-33)
(0 0 0)
(-4.44089e-16 0 -7.70372e-34)
(4.44089e-16 6.93889e-18 -7.70372e-34)
(8.88178e-16 5.55112e-17 -3.08149e-33)
(4.44089e-16 5.55112e-17 0)
(-4.44089e-16 5.55112e-17 -6.16298e-33)
(4.44089e-16 2.77556e-17 0)
(-4.44089e-16 6.93889e-18 -1.54074e-33)
(0 1.38778e-17 0)
(0 2.77556e-17 3.08149e-33)
(-4.44089e-16 -5.55112e-17 -6.16298e-33)
(8.88178e-16 -5.55112e-17 1.2326e-32)
(8.88178e-16 -2.77556e-17 1.2326e-32)
(4.44089e-16 0 7.70372e-34)
(0 1.38778e-17 0)
(0 0 -3.08149e-33)
(4.44089e-16 2.77556e-17 -6.16298e-33)
(4.44089e-16 -1.11022e-16 6.16298e-33)
(-4.44089e-16 0 0)
(-4.44089e-16 6.93889e-18 0)
(0 6.93889e-18 1.54074e-33)
(-4.44089e-16 -2.77556e-17 3.08149e-33)
(0 0 -6.16298e-33)
(4.44089e-16 0 0)
(0 0 0)
(4.44089e-16 -6.93889e-18 0)
(-4.44089e-16 -6.93889e-18 -1.54074e-33)
(4.44089e-16 2.77556e-17 -3.08149e-33)
(0 2.77556e-17 -6.16298e-33)
(4.44089e-16 5.55112e-17 0)
(4.44089e-16 0 0)
(4.44089e-16 -6.93889e-18 2.31112e-33)
(-4.44089e-16 0 -1.54074e-33)
(0 0 3.08149e-33)
(4.44089e-16 5.55112e-17 0)
(-4.44089e-16 0 0)
(0 0 3.08149e-33)
(8.88178e-16 -1.38778e-17 1.54074e-33)
(0 0 7.70372e-34)
(4.44089e-16 2.77556e-17 -3.08149e-33)
(4.44089e-16 2.77556e-17 -1.2326e-32)
(-4.44089e-16 5.55112e-17 0)
(-4.44089e-16 0 -3.08149e-33)
(4.44089e-16 0 2.31112e-33)
(-4.44089e-16 -1.38778e-17 0)
(1.33227e-15 2.77556e-17 -3.08149e-33)
(0 -2.77556e-17 0)
(0 -5.55112e-17 0)
(4.44089e-16 2.77556e-17 -3.08149e-33)
(1.33227e-15 -1.38778e-17 7.70372e-34)
(0 0 -7.70372e-34)
(0 0 0)
(0 2.77556e-17 -1.84889e-32)
(8.88178e-16 -5.55112e-17 0)
(-4.44089e-16 -2.77556e-17 6.16298e-33)
(0 6.93889e-18 -7.70372e-34)
(4.44089e-16 -6.93889e-18 0)
(0 0 3.08149e-33)
(4.44089e-16 5.55112e-17 0)
(4.44089e-16 -5.55112e-17 -6.16298e-33)
(4.44089e-16 2.77556e-17 3.08149e-33)
(8.88178e-16 6.93889e-18 0)
(0 6.93889e-18 -7.70372e-34)
(0 0 -3.08149e-33)
(-4.44089e-16 -2.77556e-17 0)
(8.88178e-16 -5.55112e-17 6.16298e-33)
(4.44089e-16 -2.77556e-17 0)
(4.44089e-16 -1.38778e-17 0)
(0 0 0)
(4.44089e-16 0 0)
(0 -2.77556e-17 0)
(0 -5.55112e-17 6.16298e-33)
(-8.88178e-16 2.77556e-17 -6.16298e-33)
(-8.88178e-16 1.38778e-17 -7.70372e-34)
(0 6.93889e-18 1.54074e-33)
(0 -2.77556e-17 3.08149e-33)
(0 0 0)
(0 -2.77556e-17 -3.08149e-33)
(-2.22045e-16 -2.77556e-17 6.16298e-33)
(0 2.77556e-17 0)
(-2.22045e-16 -2.77556e-17 0)
(2.22045e-16 -2.77556e-17 3.08149e-33)
(-2.22045e-16 -2.77556e-17 9.24446e-33)
(-4.44089e-16 5.55112e-17 -3.08149e-33)
(0 2.77556e-17 3.08149e-33)
(0 -2.77556e-17 0)
(0 0 3.08149e-33)
(-1.11022e-16 0 3.08149e-33)
(0 -2.77556e-17 0)
(1.11022e-16 0 -9.24446e-33)
(1.11022e-16 8.32667e-17 6.16298e-33)
(5.55112e-17 2.77556e-17 6.16298e-33)
(0 5.55112e-17 -6.16298e-33)
(2.77556e-17 -2.77556e-17 0)
(-1.38778e-17 2.77556e-17 6.16298e-33)
(1.73472e-18 2.77556e-17 0)
(1.38778e-17 0 0)
(5.55112e-17 -2.77556e-17 6.16298e-33)
(0 -2.77556e-17 3.08149e-33)
(0 0 6.16298e-33)
(1.11022e-16 -2.77556e-17 0)
(0 2.77556e-17 -9.24446e-33)
(-2.22045e-16 5.55112e-17 -6.16298e-33)
(0 0 6.16298e-33)
(0 -5.55112e-17 3.08149e-33)
(2.22045e-16 -2.77556e-17 3.08149e-33)
(0 5.55112e-17 3.08149e-33)
(-2.22045e-16 2.77556e-17 0)
(0 -5.55112e-17 0)
(2.22045e-16 -2.77556e-17 0)
(0 -2.77556e-17 6.16298e-33)
(2.22045e-16 -2.77556e-17 -3.08149e-33)
(0 0 1.2326e-32)
(0 0 0)
(-6.66134e-16 0 0)
(0 0 0)
(0 -2.77556e-17 3.08149e-33)
(-2.22045e-16 0 3.08149e-33)
(2.22045e-16 0 6.16298e-33)
(-2.22045e-16 -1.38778e-17 0)
(4.44089e-16 -1.38778e-17 3.08149e-33)
(4.44089e-16 0 3.08149e-33)
(2.22045e-16 -2.77556e-17 9.24446e-33)
(-4.44089e-16 -3.46945e-18 0)
(2.22045e-16 -1.73472e-18 0)
(0 -1.73472e-18 1.92593e-34)
(6.66134e-16 0 3.85186e-34)
(4.44089e-16 0 1.92593e-34)
(0 0 -3.85186e-34)
(0 0 0)
(-2.22045e-16 0 0)
(-2.22045e-16 0 -1.54074e-33)
(0 1.38778e-17 0)
(0 -1.38778e-17 1.54074e-33)
(0 2.77556e-17 1.54074e-33)
(0 -1.38778e-17 0)
(2.22045e-16 -1.38778e-17 0)
(0 0 0)
(0 0 0)
(-2.22045e-16 2.77556e-17 -3.08149e-33)
(4.44089e-16 0 0)
(0 0 0)
(4.44089e-16 -2.77556e-17 -3.08149e-33)
(0 0 3.08149e-33)
(-2.22045e-16 2.77556e-17 0)
(0 2.77556e-17 -6.16298e-33)
(0 2.77556e-17 0)
(-1.11022e-16 -5.55112e-17 3.08149e-33)
(1.11022e-16 2.77556e-17 -6.16298e-33)
(0 -2.77556e-17 0)
(-1.11022e-16 2.77556e-17 0)
(2.22045e-16 5.55112e-17 -1.2326e-32)
(0 0 0)
(-2.22045e-16 -2.77556e-17 3.08149e-33)
(-2.22045e-16 0 0)
(0 -5.55112e-17 6.16298e-33)
(0 5.55112e-17 -3.08149e-33)
(2.22045e-16 0 -3.08149e-33)
(0 2.77556e-17 0)
(0 0 0)
(4.44089e-16 0 0)
(-2.22045e-16 0 -6.16298e-33)
(-2.22045e-16 0 0)
(-2.22045e-16 5.55112e-17 -1.2326e-32)
(0 5.55112e-17 -6.16298e-33)
(0 0 1.84889e-32)
(-2.22045e-16 0 6.16298e-33)
(-3.33067e-16 1.11022e-16 -1.84889e-32)
(0 0 -6.16298e-33)
(0 1.11022e-16 0)
(1.11022e-16 -5.55112e-17 6.16298e-33)
(0 0 0)
(0 0 0)
(0 0 0)
(0 5.55112e-17 -6.16298e-33)
(-2.77556e-17 0 0)
(0 5.55112e-17 -6.16298e-33)
(0 0 -6.16298e-33)
(-1.38778e-17 -5.55112e-17 0)
(-2.77556e-17 5.55112e-17 0)
(1.11022e-16 5.55112e-17 0)
(1.11022e-16 1.11022e-16 -6.16298e-33)
(0 5.55112e-17 0)
(1.11022e-16 5.55112e-17 6.16298e-33)
(0 0 -6.16298e-33)
(2.22045e-16 1.11022e-16 -1.2326e-32)
(4.44089e-16 0 0)
(2.22045e-16 5.55112e-17 -1.2326e-32)
(0 5.55112e-17 -6.16298e-33)
(-2.22045e-16 -5.55112e-17 0)
(0 -5.55112e-17 0)
(-2.22045e-16 5.55112e-17 0)
(2.22045e-16 0 0)
(4.44089e-16 5.55112e-17 0)
(0 2.77556e-17 0)
(2.22045e-16 -5.55112e-17 0)
(0 0 0)
(0 6.93889e-18 7.70372e-34)
(-2.22045e-16 -1.38778e-17 1.54074e-33)
(-2.22045e-16 2.77556e-17 3.08149e-33)
(0 5.55112e-17 -6.16298e-33)
(-2.22045e-16 5.55112e-17 -6.16298e-33)
(-2.22045e-16 2.77556e-17 0)
(-2.22045e-16 6.93889e-18 0)
(0 0 0)
(6.66134e-16 0 0)
(-2.22045e-16 0 6.16298e-33)
(0 0 -6.16298e-33)
(0 0 0)
(-8.88178e-16 0 -7.70372e-34)
(0 6.93889e-18 0)
(-4.44089e-16 2.77556e-17 0)
(-4.44089e-16 0 -6.16298e-33)
(-4.44089e-16 -5.55112e-17 0)
(0 -2.77556e-17 -3.08149e-33)
(-4.44089e-16 2.08167e-17 -1.54074e-33)
(0 6.93889e-18 7.70372e-34)
(0 2.77556e-17 3.08149e-33)
(4.44089e-16 5.55112e-17 0)
(0 0 0)
(-8.88178e-16 0 0)
(-4.44089e-16 1.38778e-17 -1.54074e-33)
(-4.44089e-16 -1.38778e-17 0)
(-4.44089e-16 0 0)
(0 -5.55112e-17 6.16298e-33)
(0 5.55112e-17 -6.16298e-33)
(-8.88178e-16 0 0)
(0 0 -7.70372e-34)
(4.44089e-16 -6.93889e-18 -7.70372e-34)
(-4.44089e-16 0 0)
(-4.44089e-16 -5.55112e-17 0)
(0 5.55112e-17 0)
(-4.44089e-16 0 -3.08149e-33)
(4.44089e-16 6.93889e-18 0)
(4.44089e-16 6.93889e-18 -7.70372e-34)
(0 -2.77556e-17 0)
(-8.88178e-16 -5.55112e-17 6.16298e-33)
(-8.88178e-16 0 -6.16298e-33)
(-4.44089e-16 0 3.08149e-33)
(-4.44089e-16 0 -2.31112e-33)
(0 0 0)
(-4.44089e-16 -2.77556e-17 6.16298e-33)
(-4.44089e-16 -5.55112e-17 0)
(4.44089e-16 5.55112e-17 -6.16298e-33)
(-4.44089e-16 2.77556e-17 -3.08149e-33)
(-8.88178e-16 6.93889e-18 -1.54074e-33)
(0 0 0)
(-4.44089e-16 0 3.08149e-33)
(0 -5.55112e-17 6.16298e-33)
(-8.88178e-16 0 -6.16298e-33)
(-4.44089e-16 -2.77556e-17 -3.08149e-33)
(4.44089e-16 6.93889e-18 7.70372e-34)
(0 0 0)
(-4.44089e-16 0 -3.08149e-33)
(-8.88178e-16 -5.55112e-17 6.16298e-33)
(-4.44089e-16 0 0)
(-4.44089e-16 -2.77556e-17 3.08149e-33)
(-4.44089e-16 6.93889e-18 7.70372e-34)
(0 -1.38778e-17 7.70372e-34)
(4.44089e-16 2.77556e-17 -3.08149e-33)
(4.44089e-16 5.55112e-17 -6.16298e-33)
(0 -5.55112e-17 6.16298e-33)
(-8.88178e-16 0 -3.08149e-33)
(0 1.38778e-17 -7.70372e-34)
(0 0 7.70372e-34)
(-1.33227e-15 0 0)
(0 0 0)
(8.88178e-16 -5.55112e-17 6.16298e-33)
(-4.44089e-16 -2.77556e-17 0)
(4.44089e-16 0 0)
(-8.88178e-16 -6.93889e-18 7.70372e-34)
(0 0 0)
(0 0 6.16298e-33)
(-8.88178e-16 5.55112e-17 0)
(0 2.77556e-17 0)
(4.44089e-16 2.08167e-17 7.70372e-34)
(-8.88178e-16 -2.08167e-17 0)
(0 -5.55112e-17 3.08149e-33)
(-8.88178e-16 -5.55112e-17 0)
(0 0 -6.16298e-33)
(8.88178e-16 -2.77556e-17 0)
(0 0 -7.70372e-34)
(-8.88178e-16 -1.38778e-17 2.31112e-33)
(8.88178e-16 0 0)
(0 2.77556e-17 6.16298e-33)
(-8.88178e-16 0 -6.16298e-33)
(-8.88178e-16 0 -3.08149e-33)
(0 6.93889e-18 0)
(-8.88178e-16 0 0)
(-8.88178e-16 -2.77556e-17 3.08149e-33)
(-8.88178e-16 2.77556e-17 6.16298e-33)
(-8.88178e-16 5.55112e-17 0)
(-8.88178e-16 0 0)
(0 6.93889e-18 -7.70372e-34)
(0 0 7.70372e-34)
(-8.88178e-16 -2.77556e-17 0)
(-8.88178e-16 -1.11022e-16 0)
(-8.88178e-16 -2.77556e-17 0)
(-1.77636e-15 5.55112e-17 3.08149e-33)
(8.88178e-16 -1.38778e-17 7.70372e-34)
(0 0 7.70372e-34)
(-1.77636e-15 -5.55112e-17 3.08149e-33)
(-8.88178e-16 0 0)
(0 5.55112e-17 0)
(-8.88178e-16 -2.77556e-17 3.08149e-33)
(8.88178e-16 6.93889e-18 -7.70372e-34)
(8.88178e-16 0 0)
(-8.88178e-16 0 0)
(0 -2.77556e-17 0)
(0 0 0)
(-1.77636e-15 -2.77556e-17 3.08149e-33)
(-1.77636e-15 -6.93889e-18 -1.54074e-33)
(0 -1.38778e-17 7.70372e-34)
(-1.77636e-15 0 0)
(0 0 0)
(-1.77636e-15 1.11022e-16 -6.16298e-33)
(0 2.77556e-17 -3.08149e-33)
(-1.77636e-15 6.93889e-18 7.70372e-34)
(-2.66454e-15 -1.38778e-17 7.70372e-34)
(0 -2.77556e-17 6.16298e-33)
(-1.77636e-15 -8.32667e-17 1.2326e-32)
(0 0 -6.16298e-33)
(0 0 3.08149e-33)
(8.88178e-16 -6.93889e-18 -7.70372e-34)
(8.88178e-16 6.93889e-18 1.54074e-33)
(0 0 3.08149e-33)
(0 0 1.2326e-32)
(-8.88178e-16 2.77556e-17 0)
(0 2.77556e-17 -3.08149e-33)
(0 0 0)
(0 0 1.54074e-33)
(0 0 6.16298e-33)
(-8.88178e-16 0 -6.16298e-33)
(0 0 -6.16298e-33)
(0 0 -3.08149e-33)
(1.77636e-15 -6.93889e-18 0)
(-1.77636e-15 -6.93889e-18 1.54074e-33)
(0 -2.77556e-17 3.08149e-33)
(0 0 0)
(0 0 -6.16298e-33)
(0 -2.77556e-17 9.24446e-33)
(0 0 7.70372e-34)
(1.77636e-15 0 -1.54074e-33)
(0 5.55112e-17 -3.08149e-33)
(0 0 6.16298e-33)
(0 0 0)
(-8.88178e-16 -1.11022e-16 1.2326e-32)
(0 0 1.2326e-32)
(-8.88178e-16 1.11022e-16 0)
(8.88178e-16 -1.11022e-16 2.46519e-32)
(0 -1.11022e-16 1.2326e-32)
(-8.88178e-16 0 0)
(-8.88178e-16 2.22045e-16 0)
(8.88178e-16 0 0)
(8.88178e-16 -4.44089e-16 4.93038e-32)
(0 -2.22045e-16 0)
(0 0 0)
(0 0 4.93038e-32)
(0 -4.44089e-16 0)
(1.77636e-15 -1.77636e-15 1.97215e-31)
(4.44089e-16 -5.55112e-17 6.16298e-33)
(8.88178e-16 -1.11022e-16 1.2326e-32)
(0 0 0)
(0 2.22045e-16 1.2326e-32)
(4.44089e-16 -3.33067e-16 0)
(0 1.11022e-16 0)
(0 2.22045e-16 -2.46519e-32)
(4.44089e-16 0 -2.46519e-32)
(8.88178e-16 -2.22045e-16 0)
(1.33227e-15 2.22045e-16 2.46519e-32)
(0 -2.22045e-16 4.93038e-32)
(8.88178e-16 -4.44089e-16 2.46519e-32)
(-4.44089e-16 2.22045e-16 -4.93038e-32)
(0 -4.44089e-16 0)
(8.88178e-16 -8.88178e-16 0)
(0 5.55112e-17 0)
(-4.44089e-16 0 6.16298e-33)
(-4.44089e-16 1.11022e-16 -1.2326e-32)
(0 0 1.2326e-32)
(4.44089e-16 -1.11022e-16 1.2326e-32)
(0 1.11022e-16 -1.2326e-32)
(0 2.22045e-16 0)
(0 0 -2.46519e-32)
(-8.88178e-16 0 0)
(0 0 0)
(4.44089e-16 -2.22045e-16 4.93038e-32)
(0 0 2.46519e-32)
(4.44089e-16 0 0)
(8.88178e-16 0 0)
(0 0 0)
(0 -5.55112e-17 6.16298e-33)
(4.44089e-16 5.55112e-17 6.16298e-33)
(0 0 -2.46519e-32)
(4.44089e-16 -1.11022e-16 0)
(0 0 1.2326e-32)
(-4.44089e-16 0 -2.46519e-32)
(0 0 0)
(0 2.22045e-16 -2.46519e-32)
(4.44089e-16 -2.22045e-16 2.46519e-32)
(8.88178e-16 0 2.46519e-32)
(8.88178e-16 -2.22045e-16 0)
(-8.88178e-16 2.22045e-16 0)
(4.44089e-16 -2.22045e-16 0)
(4.44089e-16 -4.44089e-16 9.86076e-32)
(0 0 4.93038e-32)
(4.44089e-16 -5.55112e-17 6.16298e-33)
(-8.88178e-16 5.55112e-17 0)
(4.44089e-16 -1.11022e-16 2.46519e-32)
(4.44089e-16 0 3.69779e-32)
(0 2.22045e-16 1.2326e-32)
(4.44089e-16 -1.11022e-16 3.69779e-32)
(4.44089e-16 -2.22045e-16 2.46519e-32)
(0 0 2.46519e-32)
(-4.44089e-16 -2.22045e-16 2.46519e-32)
(4.44089e-16 -2.22045e-16 0)
(4.44089e-16 0 0)
(0 2.22045e-16 -4.93038e-32)
(0 2.22045e-16 0)
(-4.44089e-16 4.44089e-16 0)
(8.88178e-16 0 0)
(8.88178e-16 0 0)
(4.44089e-16 -1.66533e-16 6.16298e-33)
(0 -1.11022e-16 0)
(4.44089e-16 0 1.2326e-32)
(-4.44089e-16 1.11022e-16 0)
(4.44089e-16 0 1.2326e-32)
(0 -1.11022e-16 2.46519e-32)
(-4.44089e-16 0 -2.46519e-32)
(4.44089e-16 -2.22045e-16 0)
(0 -2.22045e-16 0)
(1.33227e-15 -2.22045e-16 -2.46519e-32)
(0 -2.22045e-16 0)
(1.33227e-15 -2.22045e-16 0)
(8.88178e-16 -4.44089e-16 4.93038e-32)
(-4.44089e-16 4.44089e-16 0)
(4.44089e-16 -1.11022e-16 1.2326e-32)
(8.88178e-16 -5.55112e-17 1.84889e-32)
(0 -1.11022e-16 1.2326e-32)
(0 0 0)
(0 0 0)
(4.44089e-16 -1.11022e-16 0)
(4.44089e-16 1.11022e-16 -2.46519e-32)
(-4.44089e-16 0 -2.46519e-32)
(-4.44089e-16 2.22045e-16 -2.46519e-32)
(1.33227e-15 -4.44089e-16 2.46519e-32)
(0 0 -4.93038e-32)
(0 0 0)
(0 4.44089e-16 4.93038e-32)
(8.88178e-16 -4.44089e-16 4.93038e-32)
(0 -4.44089e-16 -4.93038e-32)
(4.44089e-16 -5.55112e-17 1.2326e-32)
(8.88178e-16 -1.11022e-16 1.84889e-32)
(0 -2.22045e-16 0)
(-8.88178e-16 0 -2.46519e-32)
(-4.44089e-16 2.22045e-16 0)
(0 0 -2.46519e-32)
(0 1.11022e-16 0)
(0 -2.22045e-16 0)
(0 0 2.46519e-32)
(0 4.44089e-16 0)
(4.44089e-16 -2.22045e-16 0)
(4.44089e-16 0 7.39557e-32)
(-4.44089e-16 2.22045e-16 0)
(4.44089e-16 0 0)
(-4.44089e-16 4.44089e-16 0)
(0 -5.55112e-17 1.2326e-32)
(0 0 0)
(8.88178e-16 0 1.2326e-32)
(4.44089e-16 0 1.2326e-32)
(0 -2.22045e-16 1.2326e-32)
(8.88178e-16 -3.33067e-16 2.46519e-32)
(0 1.11022e-16 -2.46519e-32)
(0 0 2.46519e-32)
(8.88178e-16 -2.22045e-16 0)
(4.44089e-16 -4.44089e-16 7.39557e-32)
(0 0 0)
(4.44089e-16 -4.44089e-16 7.39557e-32)
(4.44089e-16 0 4.93038e-32)
(4.44089e-16 0 4.93038e-32)
(4.44089e-16 0 0)
(4.44089e-16 5.55112e-17 0)
(-4.44089e-16 5.55112e-17 -6.16298e-33)
(4.44089e-16 0 -1.2326e-32)
(0 -1.11022e-16 1.2326e-32)
(-4.44089e-16 0 0)
(8.88178e-16 -1.11022e-16 2.46519e-32)
(4.44089e-16 -2.22045e-16 2.46519e-32)
(4.44089e-16 -2.22045e-16 0)
(8.88178e-16 -4.44089e-16 7.39557e-32)
(0 0 2.46519e-32)
(4.44089e-16 -2.22045e-16 4.93038e-32)
(0 4.44089e-16 -2.46519e-32)
(4.44089e-16 -2.22045e-16 0)
(-4.44089e-16 4.44089e-16 0)
(4.44089e-16 -4.44089e-16 9.86076e-32)
(0 5.55112e-17 -1.84889e-32)
(0 0 0)
(0 -1.11022e-16 -1.2326e-32)
(0 1.11022e-16 -1.2326e-32)
(0 1.11022e-16 0)
(-4.44089e-16 1.11022e-16 -2.46519e-32)
(0 1.11022e-16 -2.46519e-32)
(0 0 0)
(0 -2.22045e-16 0)
(0 -2.22045e-16 7.39557e-32)
(4.44089e-16 0 -2.46519e-32)
(0 0 -2.46519e-32)
(0 0 0)
(-4.44089e-16 4.44089e-16 0)
(4.44089e-16 -4.44089e-16 0)
(4.44089e-16 -5.55112e-17 6.16298e-33)
(0 0 -1.2326e-32)
(0 -2.22045e-16 1.2326e-32)
(0 -1.11022e-16 2.46519e-32)
(-4.44089e-16 0 -1.2326e-32)
(4.44089e-16 0 0)
(0 -2.22045e-16 2.46519e-32)
(-4.44089e-16 4.44089e-16 0)
(4.44089e-16 2.22045e-16 2.46519e-32)
(4.44089e-16 -2.22045e-16 2.46519e-32)
(4.44089e-16 -2.22045e-16 2.46519e-32)
(0 0 0)
(0 -2.22045e-16 0)
(4.44089e-16 4.44089e-16 -4.93038e-32)
(0 4.44089e-16 -9.86076e-32)
(4.44089e-16 5.55112e-17 0)
(0 0 -1.2326e-32)
(-4.44089e-16 0 0)
(4.44089e-16 -2.22045e-16 0)
(0 -1.11022e-16 1.2326e-32)
(0 0 0)
(4.44089e-16 -1.11022e-16 2.46519e-32)
(4.44089e-16 0 2.46519e-32)
(4.44089e-16 0 2.46519e-32)
(4.44089e-16 -2.22045e-16 0)
(0 -2.22045e-16 0)
(0 2.22045e-16 0)
(4.44089e-16 -2.22045e-16 4.93038e-32)
(0 0 0)
(0 -4.44089e-16 -4.93038e-32)
(4.44089e-16 5.55112e-17 -6.16298e-33)
(4.44089e-16 -1.11022e-16 1.2326e-32)
(6.66134e-16 -1.11022e-16 2.46519e-32)
(2.22045e-16 0 2.46519e-32)
(0 2.22045e-16 -1.2326e-32)
(0 -1.11022e-16 1.2326e-32)
(0 -1.11022e-16 4.93038e-32)
(4.44089e-16 0 0)
(0 2.22045e-16 0)
(0 2.22045e-16 0)
(-2.22045e-16 0 0)
(4.44089e-16 0 -2.46519e-32)
(0 4.44089e-16 0)
(0 -4.44089e-16 0)
(0 0 4.93038e-32)
(4.44089e-16 -1.11022e-16 6.16298e-33)
(-2.22045e-16 -5.55112e-17 0)
(4.44089e-16 1.11022e-16 -1.2326e-32)
(0 -1.11022e-16 0)
(4.44089e-16 0 2.46519e-32)
(0 2.22045e-16 -1.2326e-32)
(2.22045e-16 -1.11022e-16 0)
(0 0 -2.46519e-32)
(6.66134e-16 -4.44089e-16 4.93038e-32)
(4.44089e-16 2.22045e-16 0)
(0 0 0)
(0 -4.44089e-16 4.93038e-32)
(0 0 4.93038e-32)
(0 4.44089e-16 -9.86076e-32)
(-2.22045e-16 -4.44089e-16 0)
(-2.22045e-16 4.44089e-16 0)
(0 0 -4.93038e-32)
(0 4.44089e-16 0)
(0 0 0)
(4.44089e-16 4.44089e-16 0)
(0 8.88178e-16 -4.93038e-32)
(4.44089e-16 -4.44089e-16 0)
(4.44089e-16 0 -1.47911e-31)
(4.44089e-16 4.44089e-16 0)
(-4.44089e-16 0 4.93038e-32)
(4.44089e-16 4.44089e-16 -4.93038e-32)
(4.44089e-16 4.44089e-16 -9.86076e-32)
(0 0 0)
(-8.88178e-16 -4.44089e-16 -4.93038e-32)
(-8.88178e-16 4.44089e-16 4.93038e-32)
(4.44089e-16 4.44089e-16 -4.93038e-32)
(4.44089e-16 8.88178e-16 0)
(-8.88178e-16 0 4.93038e-32)
(8.88178e-16 4.44089e-16 0)
(0 -4.44089e-16 0)
(4.44089e-16 0 -4.93038e-32)
(8.88178e-16 0 0)
(-4.44089e-16 0 0)
(-4.44089e-16 0 0)
(0 -8.88178e-16 0)
(0 8.88178e-16 -4.93038e-32)
(-4.44089e-16 0 0)
(0 0 4.93038e-32)
(8.88178e-16 0 -4.93038e-32)
(8.88178e-16 4.44089e-16 4.93038e-32)
(-4.44089e-16 -2.22045e-16 -4.93038e-32)
(6.66134e-16 -2.22045e-16 -4.93038e-32)
(4.44089e-16 -6.66134e-16 -4.93038e-32)
(0 2.22045e-16 -9.86076e-32)
(0 -4.44089e-16 0)
(4.44089e-16 2.22045e-16 0)
(4.44089e-16 4.44089e-16 -9.86076e-32)
(0 0 -4.93038e-32)
(0 0 -4.93038e-32)
(4.44089e-16 -2.22045e-16 0)
(4.44089e-16 0 -4.93038e-32)
(4.44089e-16 8.88178e-16 -4.93038e-32)
(4.44089e-16 -2.22045e-16 -9.86076e-32)
(4.44089e-16 0 0)
(0 0 -4.93038e-32)
(4.44089e-16 6.66134e-16 -7.39557e-32)
(2.22045e-16 -4.44089e-16 4.93038e-32)
(0 0 0)
(-4.44089e-16 0 0)
(0 2.22045e-16 0)
(-4.44089e-16 -2.22045e-16 4.93038e-32)
(0 0 4.93038e-32)
(4.44089e-16 -2.22045e-16 -4.93038e-32)
(4.44089e-16 4.44089e-16 -2.46519e-32)
(0 -4.44089e-16 4.93038e-32)
(4.44089e-16 0 -7.39557e-32)
(-4.44089e-16 2.22045e-16 2.46519e-32)
(8.88178e-16 2.22045e-16 -4.93038e-32)
(0 2.22045e-16 2.46519e-32)
(0 0 0)
(4.44089e-16 4.44089e-16 -2.46519e-32)
(-6.66134e-16 0 0)
(0 0 2.46519e-32)
(8.88178e-16 2.22045e-16 -2.46519e-32)
(4.44089e-16 0 0)
(0 -2.22045e-16 0)
(0 -2.22045e-16 4.93038e-32)
(4.44089e-16 2.22045e-16 -2.46519e-32)
(-4.44089e-16 0 0)
(0 2.22045e-16 4.93038e-32)
(4.44089e-16 -2.22045e-16 0)
(0 2.22045e-16 -4.93038e-32)
(-4.44089e-16 -2.22045e-16 2.46519e-32)
(4.44089e-16 4.44089e-16 -4.93038e-32)
(-8.88178e-16 -4.44089e-16 7.39557e-32)
(2.22045e-16 0 0)
(2.22045e-16 4.44089e-16 -2.46519e-32)
(8.88178e-16 2.22045e-16 -2.46519e-32)
(0 0 -2.46519e-32)
(0 2.22045e-16 -7.39557e-32)
(0 -2.22045e-16 0)
(-4.44089e-16 0 4.93038e-32)
(-4.44089e-16 0 0)
(1.33227e-15 2.22045e-16 -2.46519e-32)
(-4.44089e-16 0 -2.46519e-32)
(0 -2.22045e-16 -4.93038e-32)
(4.44089e-16 0 -7.39557e-32)
(0 2.22045e-16 -2.46519e-32)
(8.88178e-16 6.66134e-16 -2.46519e-32)
(0 0 0)
(6.66134e-16 2.22045e-16 -4.93038e-32)
(4.44089e-16 0 0)
(0 -4.44089e-16 0)
(0 0 0)
(0 0 0)
(8.88178e-16 2.22045e-16 -4.93038e-32)
(4.44089e-16 -4.44089e-16 4.93038e-32)
(-8.88178e-16 -2.22045e-16 2.46519e-32)
(4.44089e-16 -2.22045e-16 0)
(4.44089e-16 2.22045e-16 0)
(0 0 -2.46519e-32)
(-8.88178e-16 -4.44089e-16 2.46519e-32)
(-1.33227e-15 0 2.46519e-32)
(0 -2.22045e-16 2.46519e-32)
(-1.77636e-15 -2.22045e-16 2.46519e-32)
(-2.22045e-16 0 2.46519e-32)
(4.44089e-16 2.22045e-16 0)
(4.44089e-16 2.22045e-16 -2.46519e-32)
(4.44089e-16 2.22045e-16 0)
(4.44089e-16 2.22045e-16 -2.46519e-32)
(0 -2.22045e-16 0)
(0 0 -2.46519e-32)
(4.44089e-16 0 -2.46519e-32)
(0 2.22045e-16 -4.93038e-32)
(4.44089e-16 4.44089e-16 0)
(8.88178e-16 0 0)
(8.88178e-16 2.22045e-16 -2.46519e-32)
(0 2.22045e-16 -2.46519e-32)
(-8.88178e-16 4.44089e-16 0)
(-8.88178e-16 0 0)
(2.22045e-16 3.33067e-16 -2.46519e-32)
(4.44089e-16 0 0)
(1.33227e-15 0 0)
(4.44089e-16 0 0)
(0 -3.33067e-16 2.46519e-32)
(4.44089e-16 2.22045e-16 0)
(0 0 0)
(0 0 -2.46519e-32)
(4.44089e-16 2.22045e-16 0)
(0 -1.11022e-16 -2.46519e-32)
(0 -1.11022e-16 0)
(-8.88178e-16 -4.44089e-16 0)
(4.44089e-16 1.11022e-16 0)
(0 0 -2.46519e-32)
(8.88178e-16 -1.11022e-16 0)
(4.44089e-16 0 0)
(2.22045e-16 1.11022e-16 -1.2326e-32)
(0 1.11022e-16 -1.2326e-32)
(4.44089e-16 0 -1.2326e-32)
(-4.44089e-16 -2.22045e-16 2.46519e-32)
(4.44089e-16 2.22045e-16 0)
(0 0 0)
(0 0 1.2326e-32)
(-4.44089e-16 -1.11022e-16 2.46519e-32)
(-4.44089e-16 0 1.2326e-32)
(-4.44089e-16 -1.11022e-16 2.46519e-32)
(4.44089e-16 3.33067e-16 -2.46519e-32)
(1.33227e-15 1.11022e-16 -2.46519e-32)
(8.88178e-16 0 1.2326e-32)
(0 0 0)
(0 3.33067e-16 -1.2326e-32)
(4.44089e-16 1.11022e-16 -1.2326e-32)
(0 1.11022e-16 0)
(-4.44089e-16 1.11022e-16 -2.46519e-32)
(-4.44089e-16 0 -2.46519e-32)
(-8.88178e-16 0 2.46519e-32)
(8.88178e-16 2.22045e-16 -1.2326e-32)
(8.88178e-16 2.22045e-16 -2.46519e-32)
(4.44089e-16 1.11022e-16 0)
(0 0 -1.2326e-32)
(4.44089e-16 1.11022e-16 -1.2326e-32)
(8.88178e-16 1.11022e-16 -1.2326e-32)
(4.44089e-16 1.11022e-16 0)
(8.88178e-16 1.11022e-16 1.2326e-32)
(8.88178e-16 1.11022e-16 -2.46519e-32)
(-2.22045e-16 0 1.2326e-32)
(4.44089e-16 1.11022e-16 0)
(8.88178e-16 1.11022e-16 -1.2326e-32)
(0 1.11022e-16 -1.2326e-32)
(8.88178e-16 1.11022e-16 -3.69779e-32)
(0 0 -1.2326e-32)
(8.88178e-16 2.22045e-16 -1.2326e-32)
(0 1.11022e-16 0)
(4.44089e-16 2.22045e-16 -2.46519e-32)
(4.44089e-16 0 0)
(0 1.11022e-16 0)
(4.44089e-16 0 1.2326e-32)
(0 0 0)
(0 1.11022e-16 -1.2326e-32)
(0 -1.11022e-16 1.2326e-32)
(0 0 -1.2326e-32)
(4.44089e-16 0 -1.2326e-32)
(4.44089e-16 1.11022e-16 -2.46519e-32)
(4.44089e-16 1.11022e-16 0)
(-4.44089e-16 0 2.46519e-32)
(4.44089e-16 -1.11022e-16 -1.2326e-32)
(0 0 -1.2326e-32)
(0 0 0)
(8.88178e-16 3.33067e-16 -3.69779e-32)
(4.44089e-16 0 1.2326e-32)
(0 0 1.2326e-32)
(0 0 0)
(0 1.11022e-16 0)
(0 0 0)
(0 1.11022e-16 -1.2326e-32)
(2.22045e-16 0 0)
(2.22045e-16 5.55112e-17 0)
(0 1.66533e-16 -6.16298e-33)
(4.44089e-16 1.66533e-16 -6.16298e-33)
(8.88178e-16 5.55112e-17 -1.2326e-32)
(4.44089e-16 1.11022e-16 -1.84889e-32)
(0 0 0)
(0 0 0)
(4.44089e-16 1.11022e-16 -6.16298e-33)
(-8.88178e-16 0 -6.16298e-33)
(0 -5.55112e-17 6.16298e-33)
(4.44089e-16 1.11022e-16 -1.2326e-32)
(0 5.55112e-17 0)
(4.44089e-16 5.55112e-17 -1.2326e-32)
(8.88178e-16 1.11022e-16 -6.16298e-33)
(0 0 0)
(4.44089e-16 5.55112e-17 0)
(-4.44089e-16 0 -6.16298e-33)
(0 -5.55112e-17 -6.16298e-33)
(-4.44089e-16 0 0)
(0 1.11022e-16 6.16298e-33)
(0 0 0)
(-4.44089e-16 -5.55112e-17 -1.2326e-32)
(4.44089e-16 5.55112e-17 -6.16298e-33)
(0 5.55112e-17 6.16298e-33)
(0 0 6.16298e-33)
(4.44089e-16 5.55112e-17 0)
(1.33227e-15 5.55112e-17 -6.16298e-33)
(4.44089e-16 5.55112e-17 0)
(0 0 6.16298e-33)
(4.44089e-16 5.55112e-17 -6.16298e-33)
(-2.22045e-16 0 -6.16298e-33)
(2.22045e-16 0 -6.16298e-33)
(-4.44089e-16 -5.55112e-17 0)
(-2.22045e-16 -5.55112e-17 1.2326e-32)
(2.22045e-16 0 -6.16298e-33)
(0 0 1.2326e-32)
(-4.44089e-16 -5.55112e-17 6.16298e-33)
(0 0 0)
(-1.11022e-16 0 0)
(1.11022e-16 5.55112e-17 -6.16298e-33)
(-1.11022e-16 5.55112e-17 6.16298e-33)
(-1.11022e-16 -5.55112e-17 1.2326e-32)
(-5.55112e-17 0 0)
(-1.11022e-16 -5.55112e-17 6.16298e-33)
(0 -5.55112e-17 6.16298e-33)
(0 0 0)
(-2.77556e-17 -5.55112e-17 6.16298e-33)
(1.73472e-18 -1.11022e-16 6.16298e-33)
(4.16334e-17 -5.55112e-17 1.2326e-32)
(5.55112e-17 0 1.2326e-32)
(0 5.55112e-17 6.16298e-33)
(0 -5.55112e-17 0)
(0 0 0)
(-1.11022e-16 1.11022e-16 0)
(1.11022e-16 0 0)
(1.11022e-16 5.55112e-17 0)
(4.44089e-16 -5.55112e-17 1.2326e-32)
(0 0 0)
(0 -5.55112e-17 6.16298e-33)
(4.44089e-16 0 0)
(-4.44089e-16 5.55112e-17 -6.16298e-33)
(2.22045e-16 -5.55112e-17 1.2326e-32)
(4.44089e-16 -5.55112e-17 6.16298e-33)
(0 5.55112e-17 0)
(-2.22045e-16 5.55112e-17 -1.2326e-32)
(-2.22045e-16 -1.11022e-16 6.16298e-33)
(2.22045e-16 -5.55112e-17 6.16298e-33)
(0 0 6.16298e-33)
(-2.22045e-16 5.55112e-17 1.2326e-32)
(-2.22045e-16 0 0)
(0 0 -1.2326e-32)
(-4.44089e-16 -5.55112e-17 6.16298e-33)
(2.22045e-16 -5.55112e-17 -6.16298e-33)
(0 0 -1.2326e-32)
(0 -5.55112e-17 1.2326e-32)
(-2.22045e-16 0 6.16298e-33)
(1.11022e-16 5.55112e-17 -1.2326e-32)
(0 -5.55112e-17 6.16298e-33)
(0 0 6.16298e-33)
(-5.55112e-17 0 6.16298e-33)
(0 -5.55112e-17 6.16298e-33)
(2.77556e-17 0 0)
(0 0 6.16298e-33)
(3.46945e-18 -5.55112e-17 0)
(2.77556e-17 -5.55112e-17 0)
(2.77556e-17 -1.11022e-16 1.2326e-32)
(0 5.55112e-17 6.16298e-33)
(0 0 1.2326e-32)
(0 0 6.16298e-33)
(1.11022e-16 -5.55112e-17 1.84889e-32)
(0 -5.55112e-17 6.16298e-33)
(0 -5.55112e-17 6.16298e-33)
(0 -5.55112e-17 0)
(-2.22045e-16 5.55112e-17 -1.2326e-32)
(0 0 0)
(0 0 0)
(0 0 0)
(0 -5.55112e-17 0)
(4.44089e-16 0 1.2326e-32)
(4.44089e-16 -5.55112e-17 0)
(2.22045e-16 -5.55112e-17 1.2326e-32)
(4.44089e-16 0 0)
(2.22045e-16 1.11022e-16 1.2326e-32)
(-6.66134e-16 1.11022e-16 1.2326e-32)
(2.22045e-16 -1.11022e-16 0)
(2.22045e-16 1.11022e-16 -1.2326e-32)
(2.22045e-16 0 1.2326e-32)
(-2.22045e-16 1.11022e-16 -1.2326e-32)
(0 0 -1.2326e-32)
(-3.33067e-16 -1.11022e-16 1.2326e-32)
(-1.11022e-16 -1.11022e-16 -1.2326e-32)
(1.11022e-16 0 0)
(-1.11022e-16 0 0)
(2.22045e-16 1.11022e-16 -1.2326e-32)
(-5.55112e-17 -1.11022e-16 0)
(-5.55112e-17 -1.11022e-16 0)
(5.55112e-17 0 0)
(-5.55112e-17 -1.11022e-16 0)
(-6.93889e-18 -1.11022e-16 0)
(6.93889e-18 -1.11022e-16 2.46519e-32)
(0 1.11022e-16 0)
(-5.55112e-17 0 -1.2326e-32)
(0 0 0)
(5.55112e-17 0 2.46519e-32)
(1.11022e-16 0 -1.2326e-32)
(1.11022e-16 0 -1.2326e-32)
(1.11022e-16 -1.11022e-16 1.2326e-32)
(1.11022e-16 -1.11022e-16 0)
(2.22045e-16 -1.11022e-16 2.46519e-32)
(-2.22045e-16 1.11022e-16 -1.2326e-32)
(-2.22045e-16 0 -1.2326e-32)
(0 1.11022e-16 0)
(2.22045e-16 -1.11022e-16 1.2326e-32)
(2.22045e-16 0 0)
(0 0 1.2326e-32)
(0 0 0)
(0 0 0)
(-4.44089e-16 -1.11022e-16 1.2326e-32)
(2.22045e-16 -1.11022e-16 0)
(-2.22045e-16 -1.11022e-16 0)
(-4.44089e-16 -2.22045e-16 0)
(0 0 -1.2326e-32)
(2.22045e-16 0 0)
(-2.22045e-16 1.11022e-16 -1.2326e-32)
(-4.44089e-16 -1.11022e-16 1.2326e-32)
(0 -1.11022e-16 1.2326e-32)
(-3.33067e-16 0 0)
(2.22045e-16 0 1.2326e-32)
(-1.11022e-16 0 0)
(1.11022e-16 0 -1.2326e-32)
(0 0 0)
(0 -2.22045e-16 0)
(-5.55112e-17 -1.11022e-16 1.2326e-32)
(-2.77556e-17 -2.22045e-16 1.2326e-32)
(0 -1.11022e-16 0)
(1.38778e-17 -1.11022e-16 0)
(-2.77556e-17 0 -1.2326e-32)
(5.55112e-17 -3.33067e-16 3.69779e-32)
(5.55112e-17 0 0)
(5.55112e-17 0 0)
(-1.11022e-16 0 1.2326e-32)
(-1.11022e-16 1.11022e-16 0)
(-1.11022e-16 -1.11022e-16 0)
(-2.22045e-16 0 1.2326e-32)
(-1.11022e-16 -1.11022e-16 -4.93038e-32)
(2.22045e-16 -2.22045e-16 2.46519e-32)
(0 -1.11022e-16 0)
(-2.22045e-16 0 0)
(2.22045e-16 -2.22045e-16 1.2326e-32)
(4.44089e-16 0 1.2326e-32)
(0 2.22045e-16 -1.2326e-32)
(4.44089e-16 -3.33067e-16 1.2326e-32)
(2.22045e-16 1.11022e-16 -1.2326e-32)
(-4.44089e-16 -1.11022e-16 0)
(-2.22045e-16 -1.11022e-16 2.46519e-32)
(-2.22045e-16 0 -1.2326e-32)
(-2.22045e-16 0 -1.2326e-32)
(0 -1.11022e-16 1.2326e-32)
(2.22045e-16 -1.11022e-16 2.46519e-32)
(2.22045e-16 0 0)
(0 1.11022e-16 0)
(-1.11022e-16 0 2.46519e-32)
(-1.11022e-16 -2.22045e-16 2.46519e-32)
(0 0 3.69779e-32)
(0 -1.11022e-16 0)
(0 -2.22045e-16 1.2326e-32)
(-5.55112e-17 2.22045e-16 0)
(0 0 0)
(0 0 2.46519e-32)
(-2.77556e-17 -2.22045e-16 0)
(-2.08167e-17 0 2.46519e-32)
(0 -1.11022e-16 1.2326e-32)
(2.77556e-17 -2.22045e-16 0)
(0 0 1.2326e-32)
(-5.55112e-17 1.11022e-16 0)
(0 -2.22045e-16 0)
(1.11022e-16 -3.33067e-16 3.69779e-32)
(0 0 2.46519e-32)
(2.22045e-16 0 1.2326e-32)
(1.11022e-16 -1.11022e-16 0)
(1.11022e-16 -1.11022e-16 -1.2326e-32)
(2.22045e-16 0 0)
(0 0 2.46519e-32)
(2.22045e-16 0 1.2326e-32)
(4.44089e-16 -2.22045e-16 2.46519e-32)
(2.22045e-16 1.11022e-16 1.2326e-32)
(0 -1.11022e-16 2.46519e-32)
(2.22045e-16 -1.11022e-16 0)
(0 1.11022e-16 2.46519e-32)
(0 1.11022e-16 0)
(0 -2.22045e-16 1.2326e-32)
(-4.44089e-16 -1.11022e-16 3.69779e-32)
(-2.22045e-16 0 0)
(0 -2.22045e-16 3.69779e-32)
(0 -1.11022e-16 0)
(-2.22045e-16 -1.11022e-16 1.2326e-32)
(-2.22045e-16 -1.11022e-16 0)
(-3.33067e-16 -1.11022e-16 0)
(-1.11022e-16 0 0)
(-1.11022e-16 -1.11022e-16 0)
(0 0 0)
(0 0 -1.2326e-32)
(-1.11022e-16 -2.22045e-16 2.46519e-32)
(5.55112e-17 0 -1.2326e-32)
(0 -1.11022e-16 0)
(2.77556e-17 -1.11022e-16 -1.2326e-32)
(-6.93889e-18 -1.11022e-16 0)
(-1.38778e-17 0 1.2326e-32)
(-2.77556e-17 0 1.2326e-32)
(1.11022e-16 -1.11022e-16 1.2326e-32)
(5.55112e-17 0 0)
(-5.55112e-17 0 0)
(0 -1.11022e-16 1.2326e-32)
(1.11022e-16 -1.11022e-16 -1.2326e-32)
(0 -2.22045e-16 -1.2326e-32)
(-1.11022e-16 0 -1.2326e-32)
(2.22045e-16 -2.22045e-16 2.46519e-32)
(0 0 -1.2326e-32)
(2.22045e-16 -1.11022e-16 2.46519e-32)
(-4.44089e-16 -1.11022e-16 -2.46519e-32)
(0 0 -1.2326e-32)
(2.22045e-16 0 1.2326e-32)
(-4.44089e-16 0 0)
(0 0 -2.46519e-32)
(2.22045e-16 1.11022e-16 1.2326e-32)
(2.22045e-16 0 2.46519e-32)
(-4.44089e-16 1.11022e-16 0)
(0 -2.22045e-16 2.46519e-32)
(2.22045e-16 0 -2.46519e-32)
(0 0 0)
(2.22045e-16 1.11022e-16 -2.46519e-32)
(0 -1.11022e-16 2.46519e-32)