/*--------------------------------*- C++ -*----------------------------------*\
| =========                 |                                                 |
| \\      /  F ield         | OpenFOAM: The Open Source CFD Toolbox           |
|  \\    /   O peration     | Version:  2.3.x                                 |
|   \\  /    A nd           | Web:      www.OpenFOAM.org                      |
|    \\/     M anipulation  |                                                 |
\*---------------------------------------------------------------------------*/
FoamFile
{
    version     2.0;
    format      ascii;
    class       volScalarField;
    location    "0";
    object      nut;
}
// * * * * * * * * * * * * * * * * * * * * * * * * * * * * * * * * * * * * * //

dimensions      [0 2 -1 0 0 0 0];

internalField   uniform 1e-6;

boundaryField
{
    inlet
    {
        type            fixedValue;
        value           uniform 1e-6;
    }
    outlet
    {
        type            zeroGradient;
    }
    bottom
    {
        type            fixedValue;
        value           uniform 1e-6;
    }
    farfield
    {
        type            fixedValue;
        value           uniform 1e-6;
    }
    hull
    {
        type            nutUSpaldingWallFunction;
        value           uniform 1e-6;
    }
    freesurface
    {
        type            zeroGradient;
    }
    region0_to_surface_freesurface_zone
    {
        type            zeroGradient;
    }
}


// ************************************************************************* //
