/*--------------------------------*- C++ -*----------------------------------*\
| =========                 |                                                 |
| \\      /  F ield         | OpenFOAM: The Open Source CFD Toolbox           |
|  \\    /   O peration     | Version:  2.4.x                                 |
|   \\  /    A nd           | Web:      www.OpenFOAM.org                      |
|    \\/     M anipulation  |                                                 |
\*---------------------------------------------------------------------------*/
FoamFile
{
    version     2.0;
    format      ascii;
    class       extendedFeatureEdgeMesh;
    location    "constant/extendedFeatureEdgeMesh";
    object      testHull.extendedFeatureEdgeMesh;
}
// * * * * * * * * * * * * * * * * * * * * * * * * * * * * * * * * * * * * * //

// points

35
(
(-1.75 0.5 0.5)
(-2 0.25 -0.75)
(-1.75 0.5 -0.75)
(-1.75 -0.5 -0.75)
(-2 -0.25 -0.75)
(2 0 -0.75)
(2 0 0.25)
(-1.75 -0.5 0.5)
(-2 -0.25 0.5)
(-2 0.25 0.5)
(-1.75 0.5 0.25)
(-1.16667 0.5 0.5)
(-0.583333 0.5 0.5)
(0 0.5 0.5)
(0 -0.5 -0.75)
(-0.875 -0.5 -0.75)
(-0.875 0.5 -0.75)
(0 0.5 -0.75)
(1 0.25 -0.75)
(1 -0.25 -0.75)
(-1.75 0.5 -0.25)
(-2 0.25 -0.25)
(-2 0.25 0.25)
(-2 -0.25 -0.25)
(-2 -0.25 0.25)
(-1.75 -0.5 -0.25)
(-1.75 -0.5 0.25)
(1 -0.25 0.375)
(0 -0.5 0.5)
(-0.583333 -0.5 0.5)
(-1.16667 -0.5 0.5)
(-1.875 -0.375 0.5)
(1 0.25 0.375)
(-1.875 0.375 0.5)
(-2 0 0.5)
)

// edges

40
(
(10 0)
(0 11)
(11 12)
(12 13)
(1 2)
(3 4)
(4 1)
(14 15)
(16 17)
(15 3)
(2 16)
(18 5)
(5 19)
(19 14)
(17 18)
(20 10)
(2 20)
(6 5)
(1 21)
(21 22)
(4 23)
(23 24)
(3 25)
(25 26)
(6 27)
(27 28)
(28 29)
(7 26)
(30 7)
(29 30)
(7 31)
(8 24)
(31 8)
(32 6)
(13 32)
(33 0)
(9 33)
(22 9)
(34 9)
(8 34)
)

// concaveStart mixedStart nonFeatureStart
10 10 10
// internalStart flatStart openStart multipleStart
40 40 40 40
// normals

66
(
(0 1 0)
(-0.707107 0.707107 0)
(-0 0 1)
(0 1 0)
(0 0 1)
(-0 1 0)
(0 0 1)
(0 0 -1)
(-0.707107 0.707107 0)
(0 0 -1)
(-0.707107 -0.707107 -0)
(0 0 -1)
(-1 0 0)
(0 0 -1)
(0 -1 0)
(0 0 -1)
(0 1 0)
(0 0 -1)
(0 -1 0)
(0 0 -1)
(0 1 0)
(0 0 -1)
(0.242536 0.970143 0)
(0.242536 -0.970143 0)
(0 0 -1)
(0.242536 -0.970143 0)
(-0 -0 -1)
(0.242536 0.970143 0)
(0 1 0)
(-0.707107 0.707107 0)
(-0.707107 0.707107 0)
(0.242536 -0.970143 0)
(-1 0 0)
(-0.707107 0.707107 0)
(-1 0 0)
(-0.707107 -0.707107 0)
(-1 -0 0)
(-0.707107 -0.707107 0)
(-0.707107 -0.707107 0)
(0 -1 0)
(0.242536 -0.970143 0)
(0.124035 0 0.992278)
(0.242536 -0.970143 0)
(0.124035 -0 0.992278)
(0 -1 0)
(0 0 1)
(0 -1 0)
(-0.707107 -0.707107 0)
(0 -1 0)
(0 0 1)
(0 -1 0)
(0 -0 1)
(0 0 1)
(-0.707107 -0.707107 -0)
(-1 0 0)
(-0.707107 -0.707107 0)
(0 0 1)
(0.242536 0.970143 0)
(0.242536 0.970143 -0)
(0.124035 0 0.992278)
(0 -0 1)
(-0.707107 0.707107 0)
(-0 0 1)
(-0.707107 0.707107 0)
(-1 0 0)
(-1 0 0)
)

// normal volume types

66
(
0
0
0
0
0
0
0
0
0
0
0
0
0
0
0
0
0
0
0
0
0
0
0
0
0
0
0
0
0
0
0
0
0
0
0
0
0
0
0
0
0
0
0
0
0
0
0
0
0
0
0
0
0
0
0
0
0
0
0
0
0
0
0
0
0
0
)

// normalDirections

40
(
2(1 -1)
2(1 -1)
2(1 -1)
2(1 -1)
2(1 -1)
2(1 -1)
2(1 -1)
2(1 -1)
2(1 -1)
2(1 -1)
2(1 -1)
2(1 -1)
2(1 -1)
2(1 -1)
2(1 -1)
2(1 -1)
2(1 -1)
2(1 -1)
2(1 -1)
2(1 -1)
2(1 -1)
2(1 -1)
2(1 -1)
2(1 -1)
2(1 -1)
2(1 -1)
2(1 -1)
2(1 -1)
2(1 -1)
2(1 -1)
2(1 -1)
2(1 -1)
2(1 -1)
2(1 -1)
2(1 -1)
2(1 -1)
2(1 -1)
2(1 -1)
2(1 -1)
2(1 -1)
)

// edgeNormals

40
(
2(0 1)
2(0 2)
2(3 4)
2(5 6)
2(7 8)
2(9 10)
2(11 12)
2(13 14)
2(15 16)
2(17 18)
2(19 20)
2(21 22)
2(21 23)
2(24 25)
2(26 27)
2(28 29)
2(20 30)
2(22 31)
2(8 32)
2(33 34)
2(12 35)
2(36 37)
2(10 18)
2(38 39)
2(40 41)
2(42 43)
2(44 45)
2(46 47)
2(48 49)
2(50 51)
2(47 52)
2(53 54)
2(55 56)
2(57 41)
2(58 59)
2(1 60)
2(61 62)
2(63 64)
2(64 62)
2(65 56)
)

// featurePointNormals

10
(
3(0 1 2)
3(7 8 12)
3(7 8 20)
3(9 10 18)
3(9 10 12)
3(21 22 23)
3(22 31 41)
3(46 47 49)
3(53 54 56)
3(61 62 64)
)

// featurePointEdges

10
(
3(0 35 1)
3(6 18 4)
3(10 16 4)
3(9 22 5)
3(6 20 5)
3(11 17 12)
3(33 24 17)
3(28 30 27)
3(32 39 31)
3(37 38 36)
)

// regionEdges
0()


// ************************************************************************* //
